
  Mrv2205 11102315382D          

  0  0  0     0  0            999 V3000
M  V30 BEGIN CTAB
M  V30 COUNTS 11 12 0 0 0
M  V30 BEGIN ATOM
M  V30 1 C 7.5913 4.3828 0 0
M  V30 2 C 6.2576 3.6128 0 0
M  V30 3 C 6.2576 2.0728 0 0
M  V30 4 C 4.9239 1.3028 0 0
M  V30 5 C 3.5902 2.0728 0 0
M  V30 6 N 2.1256 1.5969 0 0
M  V30 7 C 1.2204 2.8428 0 0
M  V30 8 N -0.3196 2.8428 0 0
M  V30 9 S 2.1256 4.0887 0 0
M  V30 10 C 3.5902 3.6128 0 0
M  V30 11 C 4.9239 4.3828 0 0
M  V30 END ATOM
M  V30 BEGIN BOND
M  V30 1 1 1 2
M  V30 2 1 2 3
M  V30 3 2 3 4
M  V30 4 1 4 5
M  V30 5 1 5 6
M  V30 6 2 6 7
M  V30 7 1 7 8
M  V30 8 1 7 9
M  V30 9 1 9 10
M  V30 10 2 5 10
M  V30 11 1 10 11
M  V30 12 2 2 11
M  V30 END BOND
M  V30 END CTAB
M  END
>  <Catalog ID>
Z57069881

>  <MW>
164.041

>  <MW (desalted)>
164.228

>  <ClogP>
2.322

>  <logS>
-3.03

>  <HBD>
1

>  <HBA>
2

>  <TPSA>
38.91

>  <RotBonds>
0

$$$$

  Mrv2205 11102315382D          

  0  0  0     0  0            999 V3000
M  V30 BEGIN CTAB
M  V30 COUNTS 11 11 0 0 0
M  V30 BEGIN ATOM
M  V30 1 N 1.3337 3.85 0 0
M  V30 2 C 1.3337 2.31 0 0
M  V30 3 C 2.6674 1.54 0 0
M  V30 4 C 2.6674 -0 0 0
M  V30 5 F 4.001 -0.77 0 0
M  V30 6 C 1.3337 -0.77 0 0
M  V30 7 C 0 0 0 0
M  V30 8 C 0 1.54 0 0
M  V30 9 C -1.3337 2.31 0 0
M  V30 10 O -2.6674 1.54 0 0
M  V30 11 O -1.3337 3.85 0 0
M  V30 END ATOM
M  V30 BEGIN BOND
M  V30 1 1 1 2
M  V30 2 1 2 3
M  V30 3 2 3 4
M  V30 4 1 4 5
M  V30 5 1 4 6
M  V30 6 2 6 7
M  V30 7 1 7 8
M  V30 8 2 2 8
M  V30 9 1 8 9
M  V30 10 2 9 10
M  V30 11 1 9 11
M  V30 END BOND
M  V30 END CTAB
M  END
>  <Catalog ID>
Z106939542

>  <MW>
155.038

>  <MW (desalted)>
155.126

>  <ClogP>
1.478

>  <logS>
-1.63

>  <HBD>
2

>  <HBA>
3

>  <TPSA>
63.32

>  <RotBonds>
1

$$$$

  Mrv2205 11102315382D          

  0  0  0     0  0            999 V3000
M  V30 BEGIN CTAB
M  V30 COUNTS 11 11 0 0 0
M  V30 BEGIN ATOM
M  V30 1 N 1.3337 5.39 0 0
M  V30 2 S 1.3337 3.85 0 0
M  V30 3 O -0.2063 3.85 0 0
M  V30 4 O 2.8737 3.85 0 0
M  V30 5 C 1.3337 2.31 0 0
M  V30 6 C 2.6674 1.54 0 0
M  V30 7 C 2.6674 -0 0 0
M  V30 8 C 1.3337 -0.77 0 0
M  V30 9 C 0 0 0 0
M  V30 10 F -1.3337 -0.77 0 0
M  V30 11 C 0 1.54 0 0
M  V30 END ATOM
M  V30 BEGIN BOND
M  V30 1 1 1 2
M  V30 2 2 2 3
M  V30 3 2 2 4
M  V30 4 1 2 5
M  V30 5 1 5 6
M  V30 6 2 6 7
M  V30 7 1 7 8
M  V30 8 2 8 9
M  V30 9 1 9 10
M  V30 10 1 9 11
M  V30 11 2 5 11
M  V30 END BOND
M  V30 END CTAB
M  END
>  <Catalog ID>
Z45415568

>  <MW>
175.01

>  <MW (desalted)>
175.181

>  <ClogP>
0.694

>  <logS>
-1.62

>  <HBD>
1

>  <HBA>
2

>  <TPSA>
60.16

>  <RotBonds>
1

$$$$

  Mrv2205 11102315382D          

  0  0  0     0  0            999 V3000
M  V30 BEGIN CTAB
M  V30 COUNTS 11 12 0 0 0
M  V30 BEGIN ATOM
M  V30 1 Cl 7.5913 4.3828 0 0
M  V30 2 C 6.2576 3.6128 0 0
M  V30 3 C 6.2576 2.0728 0 0
M  V30 4 C 4.9239 1.3028 0 0
M  V30 5 C 3.5902 2.0728 0 0
M  V30 6 O 2.1256 1.5969 0 0
M  V30 7 C 1.2204 2.8428 0 0
M  V30 8 O -0.3196 2.8428 0 0
M  V30 9 N 2.1256 4.0887 0 0
M  V30 10 C 3.5902 3.6128 0 0
M  V30 11 C 4.9239 4.3828 0 0
M  V30 END ATOM
M  V30 BEGIN BOND
M  V30 1 1 1 2
M  V30 2 1 2 3
M  V30 3 2 3 4
M  V30 4 1 4 5
M  V30 5 1 5 6
M  V30 6 1 6 7
M  V30 7 2 7 8
M  V30 8 1 7 9
M  V30 9 1 9 10
M  V30 10 2 5 10
M  V30 11 1 10 11
M  V30 12 2 2 11
M  V30 END BOND
M  V30 END CTAB
M  END
>  <Catalog ID>
Z57183224

>  <MW>
168.993

>  <MW (desalted)>
169.565

>  <ClogP>
1.871

>  <logS>
-2.87

>  <HBD>
1

>  <HBA>
2

>  <TPSA>
38.33

>  <RotBonds>
0

$$$$

  Mrv2205 11102315382D          

  0  0  0     0  0            999 V3000
M  V30 BEGIN CTAB
M  V30 COUNTS 11 11 0 0 0
M  V30 BEGIN ATOM
M  V30 1 O 0 6.16 0 0
M  V30 2 C 0 4.62 0 0
M  V30 3 O -1.3337 3.85 0 0
M  V30 4 C 1.3337 3.85 0 0
M  V30 5 C 1.3337 2.31 0 0
M  V30 6 C 2.6674 1.54 0 0
M  V30 7 C 2.6674 -0 0 0
M  V30 8 C 1.3337 -0.77 0 0
M  V30 9 C 0 0 0 0
M  V30 10 C 0 1.54 0 0
M  V30 11 O -1.3337 2.31 0 0
M  V30 END ATOM
M  V30 BEGIN BOND
M  V30 1 1 1 2
M  V30 2 2 2 3
M  V30 3 1 2 4
M  V30 4 1 4 5
M  V30 5 1 5 6
M  V30 6 2 6 7
M  V30 7 1 7 8
M  V30 8 2 8 9
M  V30 9 1 9 10
M  V30 10 2 5 10
M  V30 11 1 10 11
M  V30 END BOND
M  V30 END CTAB
M  END
>  <Catalog ID>
Z608061328

>  <MW>
152.047

>  <MW (desalted)>
152.147

>  <ClogP>
0.697

>  <logS>
-0.66

>  <HBD>
2

>  <HBA>
3

>  <TPSA>
57.53

>  <RotBonds>
2

$$$$

  Mrv2205 11102315382D          

  0  0  0     0  0            999 V3000
M  V30 BEGIN CTAB
M  V30 COUNTS 13 14 0 0 0
M  V30 BEGIN ATOM
M  V30 1 C 0 -0 0 0
M  V30 2 C 1.3337 -0.77 0 0
M  V30 3 N 2.6674 0 0 0
M  V30 4 C 4.001 -0.77 0 0
M  V30 5 C 5.3347 0 0 0
M  V30 6 C 6.6684 -0.77 0 0
M  V30 7 C 6.6684 -2.31 0 0
M  V30 8 C 5.3347 -3.08 0 0
M  V30 9 C 4.001 -2.31 0 0
M  V30 10 C 2.6674 -3.08 0 0
M  V30 11 O 2.6674 -4.62 0 0
M  V30 12 C 1.3337 -2.31 0 0
M  V30 13 O 0 -3.08 0 0
M  V30 END ATOM
M  V30 BEGIN BOND
M  V30 1 1 1 2
M  V30 2 1 2 3
M  V30 3 1 3 4
M  V30 4 1 4 5
M  V30 5 2 5 6
M  V30 6 1 6 7
M  V30 7 2 7 8
M  V30 8 1 8 9
M  V30 9 2 4 9
M  V30 10 1 9 10
M  V30 11 2 10 11
M  V30 12 1 10 12
M  V30 13 2 2 12
M  V30 14 1 12 13
M  V30 END BOND
M  V30 END CTAB
M  END
>  <Catalog ID>
Z1255448123

>  <MW>
175.063

>  <MW (desalted)>
175.184

>  <ClogP>
0.314

>  <logS>
-2.03

>  <HBD>
2

>  <HBA>
3

>  <TPSA>
49.33

>  <RotBonds>
0

$$$$

  Mrv2205 11102315382D          

  0  0  0     0  0            999 V3000
M  V30 BEGIN CTAB
M  V30 COUNTS 12 13 0 0 0
M  V30 BEGIN ATOM
M  V30 1 O 4.787 4.62 0 0
M  V30 2 C 6.1207 3.85 0 0
M  V30 3 O 7.4543 4.62 0 0
M  V30 4 C 6.1207 2.31 0 0
M  V30 5 C 7.4543 1.54 0 0
M  V30 6 C 7.4543 0 0 0
M  V30 7 C 6.1207 -0.77 0 0
M  V30 8 C 4.787 0 0 0
M  V30 9 O 3.3224 -0.4759 0 0
M  V30 10 C 2.4172 0.77 0 0
M  V30 11 O 3.3224 2.0159 0 0
M  V30 12 C 4.787 1.54 0 0
M  V30 END ATOM
M  V30 BEGIN BOND
M  V30 1 1 1 2
M  V30 2 2 2 3
M  V30 3 1 2 4
M  V30 4 1 4 5
M  V30 5 2 5 6
M  V30 6 1 6 7
M  V30 7 2 7 8
M  V30 8 1 8 9
M  V30 9 1 9 10
M  V30 10 1 10 11
M  V30 11 1 11 12
M  V30 12 1 8 12
M  V30 13 2 4 12
M  V30 END BOND
M  V30 END CTAB
M  END
>  <Catalog ID>
Z553832512

>  <MW>
166.027

>  <MW (desalted)>
166.131

>  <ClogP>
1.972

>  <logS>
-2.12

>  <HBD>
1

>  <HBA>
4

>  <TPSA>
55.76

>  <RotBonds>
1

$$$$

  Mrv2205 11102315382D          

  0  0  0     0  0            999 V3000
M  V30 BEGIN CTAB
M  V30 COUNTS 15 17 0 0 0
M  V30 BEGIN ATOM
M  V30 1 C 7.4543 6.16 0 0
M  V30 2 C 7.4543 4.62 0 0
M  V30 3 N 6.1207 3.85 0 0
M  V30 4 C 4.787 4.62 0 0
M  V30 5 C 4.787 6.16 0 0
M  V30 6 N 6.1207 6.93 0 0
M  V30 7 C 6.1207 2.31 0 0
M  V30 8 C 7.4543 1.54 0 0
M  V30 9 C 7.4543 0 0 0
M  V30 10 C 6.1207 -0.77 0 0
M  V30 11 C 4.787 0 0 0
M  V30 12 N 3.3224 -0.4759 0 0
M  V30 13 C 2.4172 0.77 0 0
M  V30 14 C 3.3224 2.0159 0 0
M  V30 15 C 4.787 1.54 0 0
M  V30 END ATOM
M  V30 BEGIN BOND
M  V30 1 1 1 2
M  V30 2 1 2 3
M  V30 3 1 3 4
M  V30 4 1 4 5
M  V30 5 1 5 6
M  V30 6 1 1 6
M  V30 7 1 3 7
M  V30 8 1 7 8
M  V30 9 2 8 9
M  V30 10 1 9 10
M  V30 11 2 10 11
M  V30 12 1 11 12
M  V30 13 1 12 13
M  V30 14 2 13 14
M  V30 15 1 14 15
M  V30 16 2 7 15
M  V30 17 1 11 15
M  V30 END BOND
M  V30 END CTAB
M  END
>  <Catalog ID>
Z1509140701

>  <MW>
201.127

>  <MW (desalted)>
201.268

>  <ClogP>
1.574

>  <logS>
-2.254

>  <HBD>
2

>  <HBA>
2

>  <TPSA>
31.06

>  <RotBonds>
1

$$$$

  Mrv2205 11102315382D          

  0  0  0     0  0            999 V3000
M  V30 BEGIN CTAB
M  V30 COUNTS 11 11 0 0 0
M  V30 BEGIN ATOM
M  V30 1 C 0 6.16 0 0
M  V30 2 O 0 4.62 0 0
M  V30 3 C 1.3337 3.85 0 0
M  V30 4 O 2.6674 4.62 0 0
M  V30 5 C 1.3337 2.31 0 0
M  V30 6 C 2.6674 1.54 0 0
M  V30 7 C 2.6674 -0 0 0
M  V30 8 C 1.3337 -0.77 0 0
M  V30 9 O 1.3337 -2.31 0 0
M  V30 10 C 0 0 0 0
M  V30 11 C 0 1.54 0 0
M  V30 END ATOM
M  V30 BEGIN BOND
M  V30 1 1 1 2
M  V30 2 1 2 3
M  V30 3 2 3 4
M  V30 4 1 3 5
M  V30 5 1 5 6
M  V30 6 2 6 7
M  V30 7 1 7 8
M  V30 8 1 8 9
M  V30 9 2 8 10
M  V30 10 1 10 11
M  V30 11 2 5 11
M  V30 END BOND
M  V30 END CTAB
M  END
>  <Catalog ID>
Z19674820

>  <MW>
152.047

>  <MW (desalted)>
152.147

>  <ClogP>
1.985

>  <logS>
-1.3

>  <HBD>
1

>  <HBA>
2

>  <TPSA>
46.53

>  <RotBonds>
2

$$$$

  Mrv2205 11102315382D          

  0  0  0     0  0            999 V3000
M  V30 BEGIN CTAB
M  V30 COUNTS 11 11 0 0 0
M  V30 BEGIN ATOM
M  V30 1 C 0 4.62 0 0
M  V30 2 C 1.3337 3.85 0 0
M  V30 3 C 1.3337 2.31 0 0
M  V30 4 C 2.6674 1.54 0 0
M  V30 5 C 2.6674 -0 0 0
M  V30 6 C 1.3337 -0.77 0 0
M  V30 7 C 0 0 0 0
M  V30 8 C 0 1.54 0 0
M  V30 9 C 1.3337 -2.31 0 0
M  V30 10 O 2.6674 -3.08 0 0
M  V30 11 O -0 -3.08 0 0
M  V30 END ATOM
M  V30 BEGIN BOND
M  V30 1 1 1 2
M  V30 2 1 2 3
M  V30 3 1 3 4
M  V30 4 2 4 5
M  V30 5 1 5 6
M  V30 6 2 6 7
M  V30 7 1 7 8
M  V30 8 2 3 8
M  V30 9 1 6 9
M  V30 10 2 9 10
M  V30 11 1 9 11
M  V30 END BOND
M  V30 END CTAB
M  END
>  <Catalog ID>
Z104478474

>  <MW>
150.068

>  <MW (desalted)>
150.175

>  <ClogP>
2.913

>  <logS>
-2.55

>  <HBD>
1

>  <HBA>
2

>  <TPSA>
37.3

>  <RotBonds>
2

$$$$

  Mrv2205 11102315382D          

  0  0  0     0  0            999 V3000
M  V30 BEGIN CTAB
M  V30 COUNTS 12 13 0 0 0
M  V30 BEGIN ATOM
M  V30 1 O 7.5913 5.9228 0 0
M  V30 2 C 7.5913 4.3828 0 0
M  V30 3 O 8.925 3.6128 0 0
M  V30 4 C 6.2576 3.6128 0 0
M  V30 5 C 6.2576 2.0728 0 0
M  V30 6 C 4.9239 1.3028 0 0
M  V30 7 C 3.5902 2.0728 0 0
M  V30 8 O 2.1256 1.5969 0 0
M  V30 9 C 1.2204 2.8428 0 0
M  V30 10 C 2.1256 4.0887 0 0
M  V30 11 C 3.5902 3.6128 0 0
M  V30 12 C 4.9239 4.3828 0 0
M  V30 END ATOM
M  V30 BEGIN BOND
M  V30 1 1 1 2
M  V30 2 2 2 3
M  V30 3 1 2 4
M  V30 4 1 4 5
M  V30 5 2 5 6
M  V30 6 1 6 7
M  V30 7 1 7 8
M  V30 8 1 8 9
M  V30 9 1 9 10
M  V30 10 1 10 11
M  V30 11 2 7 11
M  V30 12 1 11 12
M  V30 13 2 4 12
M  V30 END BOND
M  V30 END CTAB
M  END
>  <Catalog ID>
Z285150320

>  <MW>
164.047

>  <MW (desalted)>
164.158

>  <ClogP>
2.158

>  <logS>
-1.88

>  <HBD>
1

>  <HBA>
3

>  <TPSA>
46.53

>  <RotBonds>
1

$$$$

  Mrv2205 11102315382D          

  0  0  0     0  0            999 V3000
M  V30 BEGIN CTAB
M  V30 COUNTS 12 12 0 0 0
M  V30 BEGIN ATOM
M  V30 1 C 1.3337 3.85 0 0
M  V30 2 C 1.3337 2.31 0 0
M  V30 3 C 2.6674 1.54 0 0
M  V30 4 C 2.6674 -0 0 0
M  V30 5 C 1.3337 -0.77 0 0
M  V30 6 C 0 0 0 0
M  V30 7 C 0 1.54 0 0
M  V30 8 C -1.3337 2.31 0 0
M  V30 9 C -2.6674 1.54 0 0
M  V30 10 C -4.001 2.31 0 0
M  V30 11 O -5.3347 1.54 0 0
M  V30 12 O -4.001 3.85 0 0
M  V30 END ATOM
M  V30 BEGIN BOND
M  V30 1 1 1 2
M  V30 2 1 2 3
M  V30 3 2 3 4
M  V30 4 1 4 5
M  V30 5 2 5 6
M  V30 6 1 6 7
M  V30 7 2 2 7
M  V30 8 1 7 8
M  V30 9 1 8 9
M  V30 10 1 9 10
M  V30 11 2 10 11
M  V30 12 1 10 12
M  V30 END BOND
M  V30 END CTAB
M  END
>  <Catalog ID>
Z317037960

>  <MW>
164.084

>  <MW (desalted)>
164.201

>  <ClogP>
2.352

>  <logS>
-1.86

>  <HBD>
1

>  <HBA>
2

>  <TPSA>
37.3

>  <RotBonds>
3

$$$$

  Mrv2205 11102315382D          

  0  0  0     0  0            999 V3000
M  V30 BEGIN CTAB
M  V30 COUNTS 12 13 0 0 0
M  V30 BEGIN ATOM
M  V30 1 O -1.0896 -2.6365 0 0
M  V30 2 C -0.3196 -1.3028 0 0
M  V30 3 O -1.0896 0.0309 0 0
M  V30 4 C 1.2204 -1.3028 0 0
M  V30 5 C 2.1256 -0.0569 0 0
M  V30 6 C 3.5902 -0.5328 0 0
M  V30 7 C 4.9239 0.2372 0 0
M  V30 8 C 6.2576 -0.5328 0 0
M  V30 9 C 6.2576 -2.0728 0 0
M  V30 10 C 4.9239 -2.8428 0 0
M  V30 11 C 3.5902 -2.0728 0 0
M  V30 12 C 2.1256 -2.5487 0 0
M  V30 END ATOM
M  V30 BEGIN BOND
M  V30 1 1 1 2
M  V30 2 2 2 3
M  V30 3 1 2 4
M  V30 4 1 4 5
M  V30 5 1 5 6
M  V30 6 1 6 7
M  V30 7 2 7 8
M  V30 8 1 8 9
M  V30 9 2 9 10
M  V30 10 1 10 11
M  V30 11 2 6 11
M  V30 12 1 11 12
M  V30 13 1 4 12
M  V30 END BOND
M  V30 END CTAB
M  END
>  <Catalog ID>
Z607808530

>  <MW>
162.068

>  <MW (desalted)>
162.185

>  <ClogP>
1.788

>  <logS>
-1.69

>  <HBD>
1

>  <HBA>
2

>  <TPSA>
37.3

>  <RotBonds>
1

$$$$

  Mrv2205 11102315382D          

  0  0  0     0  0            999 V3000
M  V30 BEGIN CTAB
M  V30 COUNTS 12 12 0 0 0
M  V30 BEGIN ATOM
M  V30 1 C 0 4.62 0 0
M  V30 2 S 1.3337 3.85 0 0
M  V30 3 C 1.3337 2.31 0 0
M  V30 4 C 2.6674 1.54 0 0
M  V30 5 C 2.6674 -0 0 0
M  V30 6 C 1.3337 -0.77 0 0
M  V30 7 O 1.3337 -2.31 0 0
M  V30 8 C 0 0 0 0
M  V30 9 C 0 1.54 0 0
M  V30 10 C -1.3337 -0.77 0 0
M  V30 11 O -2.6674 0 0 0
M  V30 12 O -1.3337 -2.31 0 0
M  V30 END ATOM
M  V30 BEGIN BOND
M  V30 1 1 1 2
M  V30 2 1 2 3
M  V30 3 1 3 4
M  V30 4 2 4 5
M  V30 5 1 5 6
M  V30 6 1 6 7
M  V30 7 2 6 8
M  V30 8 1 8 9
M  V30 9 2 3 9
M  V30 10 1 8 10
M  V30 11 2 10 11
M  V30 12 1 10 12
M  V30 END BOND
M  V30 END CTAB
M  END
>  <Catalog ID>
Z1255431342

>  <MW>
184.019

>  <MW (desalted)>
184.212

>  <ClogP>
2.765

>  <logS>
-1.92

>  <HBD>
2

>  <HBA>
3

>  <TPSA>
57.53

>  <RotBonds>
2

$$$$

  Mrv2205 11102315382D          

  0  0  0     0  0            999 V3000
M  V30 BEGIN CTAB
M  V30 COUNTS 13 13 0 0 0
M  V30 BEGIN ATOM
M  V30 1 C 2.6674 4.62 0 0
M  V30 2 O 1.3337 3.85 0 0
M  V30 3 C 1.3337 2.31 0 0
M  V30 4 C 2.6674 1.54 0 0
M  V30 5 C 2.6674 -0 0 0
M  V30 6 C 1.3337 -0.77 0 0
M  V30 7 C 0 0 0 0
M  V30 8 C -1.3337 -0.77 0 0
M  V30 9 O -1.3337 -2.31 0 0
M  V30 10 O -2.6674 0 0 0
M  V30 11 C 0 1.54 0 0
M  V30 12 O -1.3337 2.31 0 0
M  V30 13 C -1.3337 3.85 0 0
M  V30 END ATOM
M  V30 BEGIN BOND
M  V30 1 1 1 2
M  V30 2 1 2 3
M  V30 3 1 3 4
M  V30 4 2 4 5
M  V30 5 1 5 6
M  V30 6 2 6 7
M  V30 7 1 7 8
M  V30 8 2 8 9
M  V30 9 1 8 10
M  V30 10 1 7 11
M  V30 11 2 3 11
M  V30 12 1 11 12
M  V30 13 1 12 13
M  V30 END BOND
M  V30 END CTAB
M  END
>  <Catalog ID>
Z104476536

>  <MW>
182.058

>  <MW (desalted)>
182.173

>  <ClogP>
1.235

>  <logS>
-1.58

>  <HBD>
1

>  <HBA>
4

>  <TPSA>
55.76

>  <RotBonds>
3

$$$$

  Mrv2205 11102315382D          

  0  0  0     0  0            999 V3000
M  V30 BEGIN CTAB
M  V30 COUNTS 11 12 0 0 0
M  V30 BEGIN ATOM
M  V30 1 O -0.8454 -1.8096 0 0
M  V30 2 C -0.0754 -0.4759 0 0
M  V30 3 O -0.8454 0.8578 0 0
M  V30 4 C 1.4646 -0.4759 0 0
M  V30 5 C 2.3698 0.77 0 0
M  V30 6 C 3.8344 0.2941 0 0
M  V30 7 S 5.2991 0.77 0 0
M  V30 8 C 6.2043 -0.4759 0 0
M  V30 9 C 5.2991 -1.7218 0 0
M  V30 10 C 3.8344 -1.2459 0 0
M  V30 11 S 2.3698 -1.7218 0 0
M  V30 END ATOM
M  V30 BEGIN BOND
M  V30 1 1 1 2
M  V30 2 2 2 3
M  V30 3 1 2 4
M  V30 4 2 4 5
M  V30 5 1 5 6
M  V30 6 1 6 7
M  V30 7 1 7 8
M  V30 8 2 8 9
M  V30 9 1 9 10
M  V30 10 2 6 10
M  V30 11 1 10 11
M  V30 12 1 4 11
M  V30 END BOND
M  V30 END CTAB
M  END
>  <Catalog ID>
Z666140572

>  <MW>
183.965

>  <MW (desalted)>
184.235

>  <ClogP>
2.934

>  <logS>
-2.78

>  <HBD>
1

>  <HBA>
2

>  <TPSA>
37.3

>  <RotBonds>
1

$$$$

  Mrv2205 11102315382D          

  0  0  0     0  0            999 V3000
M  V30 BEGIN CTAB
M  V30 COUNTS 8 8 0 0 0
M  V30 BEGIN ATOM
M  V30 1 O -0.2739 5.93 0 0
M  V30 2 C -0.2739 4.39 0 0
M  V30 3 C 1.0598 3.62 0 0
M  V30 4 N 1.0598 2.08 0 0
M  V30 5 C 2.3057 1.1748 0 0
M  V30 6 C 1.8298 -0.2898 0 0
M  V30 7 C 0.2898 -0.2898 0 0
M  V30 8 N -0.1861 1.1748 0 0
M  V30 END ATOM
M  V30 BEGIN BOND
M  V30 1 1 1 2
M  V30 2 1 2 3
M  V30 3 1 3 4
M  V30 4 1 4 5
M  V30 5 2 5 6
M  V30 6 1 6 7
M  V30 7 2 7 8
M  V30 8 1 4 8
M  V30 END BOND
M  V30 END CTAB
M  END
>  <Catalog ID>
Z425794824

>  <MW>
112.064

>  <MW (desalted)>
112.13

>  <ClogP>
-0.435

>  <logS>
0.66

>  <HBD>
1

>  <HBA>
2

>  <TPSA>
38.05

>  <RotBonds>
2

$$$$

  Mrv2205 11102315382D          

  0  0  0     0  0            999 V3000
M  V30 BEGIN CTAB
M  V30 COUNTS 9 9 0 0 0
M  V30 BEGIN ATOM
M  V30 1 C 0.0294 3.2244 0 0
M  V30 2 C 1.0598 2.08 0 0
M  V30 3 C 2.3057 1.1748 0 0
M  V30 4 C 1.8298 -0.2898 0 0
M  V30 5 C 0.2898 -0.2898 0 0
M  V30 6 C -0.1861 1.1748 0 0
M  V30 7 C 2.0903 3.2244 0 0
M  V30 8 O 1.6144 4.6891 0 0
M  V30 9 O 3.5966 2.9043 0 0
M  V30 END ATOM
M  V30 BEGIN BOND
M  V30 1 1 1 2
M  V30 2 1 2 3
M  V30 3 1 3 4
M  V30 4 1 4 5
M  V30 5 1 5 6
M  V30 6 1 2 6
M  V30 7 1 2 7
M  V30 8 2 7 8
M  V30 9 1 7 9
M  V30 END BOND
M  V30 END CTAB
M  END
>  <Catalog ID>
Z199537270

>  <MW>
128.084

>  <MW (desalted)>
128.169

>  <ClogP>
1.797

>  <logS>
-1.44

>  <HBD>
1

>  <HBA>
2

>  <TPSA>
37.3

>  <RotBonds>
1

$$$$

  Mrv2205 11102315382D          

  0  0  0     0  0            999 V3000
M  V30 BEGIN CTAB
M  V30 COUNTS 10 11 0 0 0
M  V30 BEGIN ATOM
M  V30 1 N 1.6497 -4.0133 0 0
M  V30 2 C 2.1256 -2.5487 0 0
M  V30 3 N 1.2204 -1.3028 0 0
M  V30 4 N 2.1256 -0.0569 0 0
M  V30 5 C 3.5902 -0.5328 0 0
M  V30 6 C 4.9239 0.2372 0 0
M  V30 7 C 6.2576 -0.5328 0 0
M  V30 8 C 6.2576 -2.0728 0 0
M  V30 9 C 4.9239 -2.8428 0 0
M  V30 10 C 3.5902 -2.0728 0 0
M  V30 END ATOM
M  V30 BEGIN BOND
M  V30 1 1 1 2
M  V30 2 2 2 3
M  V30 3 1 3 4
M  V30 4 1 4 5
M  V30 5 1 5 6
M  V30 6 2 6 7
M  V30 7 1 7 8
M  V30 8 2 8 9
M  V30 9 1 9 10
M  V30 10 1 2 10
M  V30 11 2 5 10
M  V30 END BOND
M  V30 END CTAB
M  END
>  <Catalog ID>
Z56820416

>  <MW>
133.064

>  <MW (desalted)>
133.151

>  <ClogP>
1.248

>  <logS>
-2.32

>  <HBD>
2

>  <HBA>
2

>  <TPSA>
54.7

>  <RotBonds>
0

$$$$

  Mrv2205 11102315382D          

  0  0  0     0  0            999 V3000
M  V30 BEGIN CTAB
M  V30 COUNTS 13 13 0 0 0
M  V30 BEGIN ATOM
M  V30 1 N 0 6.16 0 0
M  V30 2 C 0 4.62 0 0
M  V30 3 C 1.3337 3.85 0 0
M  V30 4 C 1.3337 2.31 0 0
M  V30 5 C 2.6674 1.54 0 0
M  V30 6 C 2.6674 -0 0 0
M  V30 7 C 1.3337 -0.77 0 0
M  V30 8 C 0 0 0 0
M  V30 9 C 0 1.54 0 0
M  V30 10 S 1.3337 -2.31 0 0
M  V30 11 O 1.3337 -3.85 0 0
M  V30 12 O -0.2063 -2.31 0 0
M  V30 13 N 2.8737 -2.31 0 0
M  V30 END ATOM
M  V30 BEGIN BOND
M  V30 1 1 1 2
M  V30 2 1 2 3
M  V30 3 1 3 4
M  V30 4 1 4 5
M  V30 5 2 5 6
M  V30 6 1 6 7
M  V30 7 2 7 8
M  V30 8 1 8 9
M  V30 9 2 4 9
M  V30 10 1 7 10
M  V30 11 2 10 11
M  V30 12 2 10 12
M  V30 13 1 10 13
M  V30 END BOND
M  V30 END CTAB
M  END
>  <Catalog ID>
Z56755653

>  <MW>
200.062

>  <MW (desalted)>
200.258

>  <ClogP>
-0.404

>  <logS>
-1

>  <HBD>
2

>  <HBA>
3

>  <TPSA>
86.18

>  <RotBonds>
3

$$$$

  Mrv2205 11102315382D          

  0  0  0     0  0            999 V3000
M  V30 BEGIN CTAB
M  V30 COUNTS 13 14 0 0 0
M  V30 BEGIN ATOM
M  V30 1 C 6.1207 3.85 0 0
M  V30 2 C 6.1207 2.31 0 0
M  V30 3 C 7.4543 1.54 0 0
M  V30 4 C 7.4543 0 0 0
M  V30 5 C 6.1207 -0.77 0 0
M  V30 6 C 4.787 0 0 0
M  V30 7 N 3.3224 -0.4759 0 0
M  V30 8 C 2.4172 0.77 0 0
M  V30 9 C 3.3224 2.0159 0 0
M  V30 10 C 4.787 1.54 0 0
M  V30 11 C 0.8772 0.77 0 0
M  V30 12 O 0.1072 -0.5637 0 0
M  V30 13 O 0.1072 2.1037 0 0
M  V30 END ATOM
M  V30 BEGIN BOND
M  V30 1 1 1 2
M  V30 2 1 2 3
M  V30 3 2 3 4
M  V30 4 1 4 5
M  V30 5 2 5 6
M  V30 6 1 6 7
M  V30 7 1 7 8
M  V30 8 2 8 9
M  V30 9 1 9 10
M  V30 10 2 2 10
M  V30 11 1 6 10
M  V30 12 1 8 11
M  V30 13 2 11 12
M  V30 14 1 11 13
M  V30 END BOND
M  V30 END CTAB
M  END
>  <Catalog ID>
Z119989626

>  <MW>
175.063

>  <MW (desalted)>
175.184

>  <ClogP>
2.63

>  <logS>
-3.17

>  <HBD>
2

>  <HBA>
2

>  <TPSA>
53.09

>  <RotBonds>
1

$$$$

  Mrv2205 11102315382D          

  0  0  0     0  0            999 V3000
M  V30 BEGIN CTAB
M  V30 COUNTS 9 9 0 0 0
M  V30 BEGIN ATOM
M  V30 1 C 1.0598 3.62 0 0
M  V30 2 C 1.0598 2.08 0 0
M  V30 3 C 2.3057 1.1748 0 0
M  V30 4 C 1.8298 -0.2898 0 0
M  V30 5 C 0.2898 -0.2898 0 0
M  V30 6 O -0.1861 1.1748 0 0
M  V30 7 C -0.6154 -1.5357 0 0
M  V30 8 O 0.011 -2.9426 0 0
M  V30 9 O -2.1469 -1.3747 0 0
M  V30 END ATOM
M  V30 BEGIN BOND
M  V30 1 1 1 2
M  V30 2 2 2 3
M  V30 3 1 3 4
M  V30 4 2 4 5
M  V30 5 1 5 6
M  V30 6 1 2 6
M  V30 7 1 5 7
M  V30 8 2 7 8
M  V30 9 1 7 9
M  V30 END BOND
M  V30 END CTAB
M  END
>  <Catalog ID>
Z56895714

>  <MW>
126.032

>  <MW (desalted)>
126.11

>  <ClogP>
1.56

>  <logS>
-1.06

>  <HBD>
1

>  <HBA>
2

>  <TPSA>
50.44

>  <RotBonds>
1

$$$$

  Mrv2205 11102315382D          

  0  0  0     0  0            999 V3000
M  V30 BEGIN CTAB
M  V30 COUNTS 11 12 0 0 0
M  V30 BEGIN ATOM
M  V30 1 O -0.3196 -1.3028 0 0
M  V30 2 C 1.2204 -1.3028 0 0
M  V30 3 N 2.1256 -0.0569 0 0
M  V30 4 C 3.5902 -0.5328 0 0
M  V30 5 C 4.9239 0.2372 0 0
M  V30 6 C 6.2576 -0.5328 0 0
M  V30 7 C 6.2576 -2.0728 0 0
M  V30 8 C 4.9239 -2.8428 0 0
M  V30 9 C 3.5902 -2.0728 0 0
M  V30 10 C 2.1256 -2.5487 0 0
M  V30 11 O 1.6497 -4.0133 0 0
M  V30 END ATOM
M  V30 BEGIN BOND
M  V30 1 2 1 2
M  V30 2 1 2 3
M  V30 3 1 3 4
M  V30 4 1 4 5
M  V30 5 2 5 6
M  V30 6 1 6 7
M  V30 7 2 7 8
M  V30 8 1 8 9
M  V30 9 2 4 9
M  V30 10 1 9 10
M  V30 11 1 2 10
M  V30 12 2 10 11
M  V30 END BOND
M  V30 END CTAB
M  END
>  <Catalog ID>
Z57127903

>  <MW>
147.032

>  <MW (desalted)>
147.131

>  <ClogP>
0.828

>  <logS>
-2.05

>  <HBD>
1

>  <HBA>
2

>  <TPSA>
46.17

>  <RotBonds>
0

$$$$

  Mrv2205 11102315382D          

  0  0  0     0  0            999 V3000
M  V30 BEGIN CTAB
M  V30 COUNTS 12 13 0 0 0
M  V30 BEGIN ATOM
M  V30 1 N 7.5913 4.3828 0 0
M  V30 2 C 6.2576 3.6128 0 0
M  V30 3 C 6.2576 2.0728 0 0
M  V30 4 C 4.9239 1.3028 0 0
M  V30 5 C 3.5902 2.0728 0 0
M  V30 6 C 2.1256 1.5969 0 0
M  V30 7 C 1.2204 2.8428 0 0
M  V30 8 S 2.1256 4.0887 0 0
M  V30 9 O 0.7919 4.8587 0 0
M  V30 10 O 2.752 5.4956 0 0
M  V30 11 C 3.5902 3.6128 0 0
M  V30 12 C 4.9239 4.3828 0 0
M  V30 END ATOM
M  V30 BEGIN BOND
M  V30 1 1 1 2
M  V30 2 1 2 3
M  V30 3 2 3 4
M  V30 4 1 4 5
M  V30 5 1 5 6
M  V30 6 2 6 7
M  V30 7 1 7 8
M  V30 8 2 8 9
M  V30 9 2 8 10
M  V30 10 1 8 11
M  V30 11 2 5 11
M  V30 12 1 11 12
M  V30 13 2 2 12
M  V30 END BOND
M  V30 END CTAB
M  END
>  <Catalog ID>
Z445135574

>  <MW>
181.02

>  <MW (desalted)>
181.212

>  <ClogP>
0.505

>  <logS>
-1.95

>  <HBD>
1

>  <HBA>
3

>  <TPSA>
60.16

>  <RotBonds>
0

$$$$

  Mrv2205 11102315382D          

  0  0  0     0  0            999 V3000
M  V30 BEGIN CTAB
M  V30 COUNTS 14 15 0 0 0
M  V30 BEGIN ATOM
M  V30 1 C 8.925 3.6128 0 0
M  V30 2 O 7.5913 4.3828 0 0
M  V30 3 C 6.2576 3.6128 0 0
M  V30 4 C 6.2576 2.0728 0 0
M  V30 5 C 4.9239 1.3028 0 0
M  V30 6 C 3.5902 2.0728 0 0
M  V30 7 N 2.1256 1.5969 0 0
M  V30 8 C 1.2204 2.8428 0 0
M  V30 9 C 2.1256 4.0887 0 0
M  V30 10 C 3.5902 3.6128 0 0
M  V30 11 C 4.9239 4.3828 0 0
M  V30 12 C -0.3196 2.8428 0 0
M  V30 13 O -1.0896 1.5091 0 0
M  V30 14 O -1.0896 4.1765 0 0
M  V30 END ATOM
M  V30 BEGIN BOND
M  V30 1 1 1 2
M  V30 2 1 2 3
M  V30 3 1 3 4
M  V30 4 2 4 5
M  V30 5 1 5 6
M  V30 6 1 6 7
M  V30 7 1 7 8
M  V30 8 2 8 9
M  V30 9 1 9 10
M  V30 10 2 6 10
M  V30 11 1 10 11
M  V30 12 2 3 11
M  V30 13 1 8 12
M  V30 14 2 12 13
M  V30 15 1 12 14
M  V30 END BOND
M  V30 END CTAB
M  END
>  <Catalog ID>
Z1096153758

>  <MW>
191.058

>  <MW (desalted)>
191.183

>  <ClogP>
2.135

>  <logS>
-2.69

>  <HBD>
2

>  <HBA>
3

>  <TPSA>
62.32

>  <RotBonds>
2

$$$$

  Mrv2205 11102315382D          

  0  0  0     0  0            999 V3000
M  V30 BEGIN CTAB
M  V30 COUNTS 10 10 0 0 0
M  V30 BEGIN ATOM
M  V30 1 C 0 4.62 0 0
M  V30 2 C 1.3337 3.85 0 0
M  V30 3 O 2.6674 4.62 0 0
M  V30 4 C 1.3337 2.31 0 0
M  V30 5 C 2.6674 1.54 0 0
M  V30 6 C 2.6674 -0 0 0
M  V30 7 C 1.3337 -0.77 0 0
M  V30 8 C 0 0 0 0
M  V30 9 N -1.3337 -0.77 0 0
M  V30 10 C 0 1.54 0 0
M  V30 END ATOM
M  V30 BEGIN BOND
M  V30 1 1 1 2
M  V30 2 2 2 3
M  V30 3 1 2 4
M  V30 4 1 4 5
M  V30 5 2 5 6
M  V30 6 1 6 7
M  V30 7 2 7 8
M  V30 8 1 8 9
M  V30 9 1 8 10
M  V30 10 2 4 10
M  V30 END BOND
M  V30 END CTAB
M  END
>  <Catalog ID>
Z57127443

>  <MW>
135.068

>  <MW (desalted)>
135.163

>  <ClogP>
0.864

>  <logS>
-1.57

>  <HBD>
1

>  <HBA>
2

>  <TPSA>
43.09

>  <RotBonds>
1

$$$$

  Mrv2205 11102315382D          

  0  0  0     0  0            999 V3000
M  V30 BEGIN CTAB
M  V30 COUNTS 10 10 0 0 0
M  V30 BEGIN ATOM
M  V30 1 N 0 6.16 0 0
M  V30 2 N 0 4.62 0 0
M  V30 3 C 1.3337 3.85 0 0
M  V30 4 O 2.6674 4.62 0 0
M  V30 5 C 1.3337 2.31 0 0
M  V30 6 C 2.6674 1.54 0 0
M  V30 7 C 2.6674 -0 0 0
M  V30 8 N 1.3337 -0.77 0 0
M  V30 9 C 0 0 0 0
M  V30 10 C 0 1.54 0 0
M  V30 END ATOM
M  V30 BEGIN BOND
M  V30 1 1 1 2
M  V30 2 1 2 3
M  V30 3 2 3 4
M  V30 4 1 3 5
M  V30 5 1 5 6
M  V30 6 2 6 7
M  V30 7 1 7 8
M  V30 8 2 8 9
M  V30 9 1 9 10
M  V30 10 2 5 10
M  V30 END BOND
M  V30 END CTAB
M  END
>  <Catalog ID>
Z58981801

>  <MW>
137.059

>  <MW (desalted)>
137.139

>  <ClogP>
-0.668

>  <logS>
-0.51

>  <HBD>
2

>  <HBA>
3

>  <TPSA>
68.01

>  <RotBonds>
1

$$$$

  Mrv2205 11102315382D          

  0  0  0     0  0            999 V3000
M  V30 BEGIN CTAB
M  V30 COUNTS 11 11 0 0 0
M  V30 BEGIN ATOM
M  V30 1 C 1.3337 3.85 0 0
M  V30 2 C 1.3337 2.31 0 0
M  V30 3 C 2.6674 1.54 0 0
M  V30 4 C 2.6674 -0 0 0
M  V30 5 C 1.3337 -0.77 0 0
M  V30 6 F 1.3337 -2.31 0 0
M  V30 7 C 0 0 0 0
M  V30 8 C 0 1.54 0 0
M  V30 9 C -1.3337 2.31 0 0
M  V30 10 O -1.3337 3.85 0 0
M  V30 11 O -2.6674 1.54 0 0
M  V30 END ATOM
M  V30 BEGIN BOND
M  V30 1 1 1 2
M  V30 2 1 2 3
M  V30 3 2 3 4
M  V30 4 1 4 5
M  V30 5 1 5 6
M  V30 6 2 5 7
M  V30 7 1 7 8
M  V30 8 2 2 8
M  V30 9 1 8 9
M  V30 10 2 9 10
M  V30 11 1 9 11
M  V30 END BOND
M  V30 END CTAB
M  END
>  <Catalog ID>
Z203881854

>  <MW>
154.043

>  <MW (desalted)>
154.138

>  <ClogP>
2.325

>  <logS>
-2.32

>  <HBD>
1

>  <HBA>
2

>  <TPSA>
37.3

>  <RotBonds>
1

$$$$

  Mrv2205 11102315382D          

  0  0  0     0  0            999 V3000
M  V30 BEGIN CTAB
M  V30 COUNTS 11 11 0 0 0
M  V30 BEGIN ATOM
M  V30 1 C 1.3337 3.85 0 0
M  V30 2 C 1.3337 2.31 0 0
M  V30 3 C 2.6674 1.54 0 0
M  V30 4 O 4.001 2.31 0 0
M  V30 5 C 2.6674 -0 0 0
M  V30 6 C 1.3337 -0.77 0 0
M  V30 7 C 0 0 0 0
M  V30 8 C 0 1.54 0 0
M  V30 9 C -1.3337 2.31 0 0
M  V30 10 O -2.6674 1.54 0 0
M  V30 11 O -1.3337 3.85 0 0
M  V30 END ATOM
M  V30 BEGIN BOND
M  V30 1 1 1 2
M  V30 2 1 2 3
M  V30 3 1 3 4
M  V30 4 2 3 5
M  V30 5 1 5 6
M  V30 6 2 6 7
M  V30 7 1 7 8
M  V30 8 2 2 8
M  V30 9 1 8 9
M  V30 10 2 9 10
M  V30 11 1 9 11
M  V30 END BOND
M  V30 END CTAB
M  END
>  <Catalog ID>
Z1201620461

>  <MW>
152.047

>  <MW (desalted)>
152.147

>  <ClogP>
1.706

>  <logS>
-1.4

>  <HBD>
2

>  <HBA>
3

>  <TPSA>
57.53

>  <RotBonds>
1

$$$$

  Mrv2205 11102315382D          

  0  0  0     0  0            999 V3000
M  V30 BEGIN CTAB
M  V30 COUNTS 13 14 0 0 0
M  V30 BEGIN ATOM
M  V30 1 C 0 -4.62 0 0
M  V30 2 C 0 -3.08 0 0
M  V30 3 O -1.3337 -2.31 0 0
M  V30 4 C 1.3337 -2.31 0 0
M  V30 5 C 1.3337 -0.77 0 0
M  V30 6 C 2.6674 0 0 0
M  V30 7 C 4.001 -0.77 0 0
M  V30 8 O 5.3347 0 0 0
M  V30 9 C 6.6684 -0.77 0 0
M  V30 10 C 6.6684 -2.31 0 0
M  V30 11 O 5.3347 -3.08 0 0
M  V30 12 C 4.001 -2.31 0 0
M  V30 13 C 2.6674 -3.08 0 0
M  V30 END ATOM
M  V30 BEGIN BOND
M  V30 1 1 1 2
M  V30 2 2 2 3
M  V30 3 1 2 4
M  V30 4 1 4 5
M  V30 5 2 5 6
M  V30 6 1 6 7
M  V30 7 1 7 8
M  V30 8 1 8 9
M  V30 9 1 9 10
M  V30 10 1 10 11
M  V30 11 1 11 12
M  V30 12 2 7 12
M  V30 13 1 12 13
M  V30 14 2 4 13
M  V30 END BOND
M  V30 END CTAB
M  END
>  <Catalog ID>
Z56854473

>  <MW>
178.063

>  <MW (desalted)>
178.185

>  <ClogP>
1.745

>  <logS>
-2.27

>  <HBD>
0

>  <HBA>
3

>  <TPSA>
35.53

>  <RotBonds>
1

$$$$

  Mrv2205 11102315382D          

  0  0  0     0  0            999 V3000
M  V30 BEGIN CTAB
M  V30 COUNTS 18 19 0 0 0
M  V30 BEGIN ATOM
M  V30 1 O 2.6674 0 0 0
M  V30 2 C 4.001 -0.77 0 0
M  V30 3 O 5.3347 0 0 0
M  V30 4 C 4.001 -2.31 0 0
M  V30 5 C 2.6674 -3.08 0 0
M  V30 6 C 2.6674 -4.62 0 0
M  V30 7 C 4.001 -5.39 0 0
M  V30 8 C 5.3347 -4.62 0 0
M  V30 9 C 5.3347 -3.08 0 0
M  V30 10 C 6.6684 -2.31 0 0
M  V30 11 O 6.6684 -0.77 0 0
M  V30 12 C 8.0021 -3.08 0 0
M  V30 13 C 9.3358 -2.31 0 0
M  V30 14 C 10.6694 -3.08 0 0
M  V30 15 C 10.6694 -4.62 0 0
M  V30 16 F 12.0031 -5.39 0 0
M  V30 17 C 9.3358 -5.39 0 0
M  V30 18 C 8.0021 -4.62 0 0
M  V30 END ATOM
M  V30 BEGIN BOND
M  V30 1 1 1 2
M  V30 2 2 2 3
M  V30 3 1 2 4
M  V30 4 1 4 5
M  V30 5 2 5 6
M  V30 6 1 6 7
M  V30 7 2 7 8
M  V30 8 1 8 9
M  V30 9 2 4 9
M  V30 10 1 9 10
M  V30 11 2 10 11
M  V30 12 1 10 12
M  V30 13 1 12 13
M  V30 14 2 13 14
M  V30 15 1 14 15
M  V30 16 1 15 16
M  V30 17 2 15 17
M  V30 18 1 17 18
M  V30 19 2 12 18
M  V30 END BOND
M  V30 END CTAB
M  END
>  <Catalog ID>
Z111456674

>  <MW>
244.054

>  <MW (desalted)>
244.218

>  <ClogP>
2.557

>  <logS>
-4.18

>  <HBD>
1

>  <HBA>
3

>  <TPSA>
54.37

>  <RotBonds>
3

$$$$

  Mrv2205 11102315382D          

  0  0  0     0  0            999 V3000
M  V30 BEGIN CTAB
M  V30 COUNTS 12 12 0 0 0
M  V30 BEGIN ATOM
M  V30 1 O 0 4.62 0 0
M  V30 2 C 1.3337 3.85 0 0
M  V30 3 O 2.6674 4.62 0 0
M  V30 4 C 1.3337 2.31 0 0
M  V30 5 C 2.6674 1.54 0 0
M  V30 6 C 2.6674 -0 0 0
M  V30 7 C 1.3337 -0.77 0 0
M  V30 8 N 0 0 0 0
M  V30 9 C 0 1.54 0 0
M  V30 10 C -1.3337 2.31 0 0
M  V30 11 O -1.3337 3.85 0 0
M  V30 12 O -2.6674 1.54 0 0
M  V30 END ATOM
M  V30 BEGIN BOND
M  V30 1 1 1 2
M  V30 2 2 2 3
M  V30 3 1 2 4
M  V30 4 1 4 5
M  V30 5 2 5 6
M  V30 6 1 6 7
M  V30 7 2 7 8
M  V30 8 1 8 9
M  V30 9 2 4 9
M  V30 10 1 9 10
M  V30 11 2 10 11
M  V30 12 1 10 12
M  V30 END BOND
M  V30 END CTAB
M  END
>  <Catalog ID>
Z57160166

>  <MW>
167.022

>  <MW (desalted)>
167.119

>  <ClogP>
-0.042

>  <logS>
-0.78

>  <HBD>
2

>  <HBA>
5

>  <TPSA>
87.49

>  <RotBonds>
2

$$$$

  Mrv2205 11102315382D          

  0  0  0     0  0            999 V3000
M  V30 BEGIN CTAB
M  V30 COUNTS 12 12 0 0 1
M  V30 BEGIN ATOM
M  V30 1 C -0.2063 3.85 0 0
M  V30 2 C 1.3337 3.85 0 0 CFG=1
M  V30 3 O 2.8737 3.85 0 0
M  V30 4 C 1.3337 5.39 0 0
M  V30 5 O 0 6.16 0 0
M  V30 6 O 2.6674 6.16 0 0
M  V30 7 C 1.3337 2.31 0 0
M  V30 8 C 2.6674 1.54 0 0
M  V30 9 C 2.6674 -0 0 0
M  V30 10 C 1.3337 -0.77 0 0
M  V30 11 C 0 0 0 0
M  V30 12 C 0 1.54 0 0
M  V30 END ATOM
M  V30 BEGIN BOND
M  V30 1 1 2 1
M  V30 2 1 2 3 CFG=3
M  V30 3 1 2 4 CFG=1
M  V30 4 2 4 5
M  V30 5 1 4 6
M  V30 6 1 2 7
M  V30 7 1 7 8
M  V30 8 2 8 9
M  V30 9 1 9 10
M  V30 10 2 10 11
M  V30 11 1 11 12
M  V30 12 2 7 12
M  V30 END BOND
M  V30 END CTAB
M  END
>  <Catalog ID>
Z1154245575

>  <MW>
166.063

>  <MW (desalted)>
166.174

>  <ClogP>
0.811

>  <logS>
-1.49

>  <HBD>
2

>  <HBA>
3

>  <TPSA>
57.53

>  <RotBonds>
2

$$$$

  Mrv2205 11102315382D          

  0  0  0     0  0            999 V3000
M  V30 BEGIN CTAB
M  V30 COUNTS 13 13 0 0 0
M  V30 BEGIN ATOM
M  V30 1 O 0 4.62 0 0
M  V30 2 C 1.3337 3.85 0 0
M  V30 3 O 2.6674 4.62 0 0
M  V30 4 C 1.3337 2.31 0 0
M  V30 5 C 2.6674 1.54 0 0
M  V30 6 C 2.6674 -0 0 0
M  V30 7 C 1.3337 -0.77 0 0
M  V30 8 C 0 0 0 0
M  V30 9 C 0 1.54 0 0
M  V30 10 C 1.3337 -2.31 0 0
M  V30 11 F 1.3337 -3.85 0 0
M  V30 12 F -0.2063 -2.31 0 0
M  V30 13 F 2.8737 -2.31 0 0
M  V30 END ATOM
M  V30 BEGIN BOND
M  V30 1 1 1 2
M  V30 2 2 2 3
M  V30 3 1 2 4
M  V30 4 1 4 5
M  V30 5 2 5 6
M  V30 6 1 6 7
M  V30 7 2 7 8
M  V30 8 1 8 9
M  V30 9 2 4 9
M  V30 10 1 7 10
M  V30 11 1 10 11
M  V30 12 1 10 12
M  V30 13 1 10 13
M  V30 END BOND
M  V30 END CTAB
M  END
>  <Catalog ID>
Z56922105

>  <MW>
190.024

>  <MW (desalted)>
190.119

>  <ClogP>
2.94

>  <logS>
-2.6

>  <HBD>
1

>  <HBA>
2

>  <TPSA>
37.3

>  <RotBonds>
2

$$$$

  Mrv2205 11102315382D          

  0  0  0     0  0            999 V3000
M  V30 BEGIN CTAB
M  V30 COUNTS 13 14 0 0 0
M  V30 BEGIN ATOM
M  V30 1 O 0.1434 -4.3335 0 0
M  V30 2 C 1.6497 -4.0133 0 0
M  V30 3 O 2.6802 -5.1578 0 0
M  V30 4 C 2.1256 -2.5487 0 0
M  V30 5 C 1.2204 -1.3028 0 0
M  V30 6 N 2.1256 -0.0569 0 0
M  V30 7 C 3.5902 -0.5328 0 0
M  V30 8 C 4.9239 0.2372 0 0
M  V30 9 C 6.2576 -0.5328 0 0
M  V30 10 Cl 7.5913 0.2372 0 0
M  V30 11 C 6.2576 -2.0728 0 0
M  V30 12 C 4.9239 -2.8428 0 0
M  V30 13 C 3.5902 -2.0728 0 0
M  V30 END ATOM
M  V30 BEGIN BOND
M  V30 1 1 1 2
M  V30 2 2 2 3
M  V30 3 1 2 4
M  V30 4 2 4 5
M  V30 5 1 5 6
M  V30 6 1 6 7
M  V30 7 1 7 8
M  V30 8 2 8 9
M  V30 9 1 9 10
M  V30 10 1 9 11
M  V30 11 2 11 12
M  V30 12 1 12 13
M  V30 13 1 4 13
M  V30 14 2 7 13
M  V30 END BOND
M  V30 END CTAB
M  END
>  <Catalog ID>
Z385446076

>  <MW>
195.009

>  <MW (desalted)>
195.602

>  <ClogP>
2.925

>  <logS>
-3.09

>  <HBD>
2

>  <HBA>
2

>  <TPSA>
53.09

>  <RotBonds>
1

$$$$

  Mrv2205 11102315382D          

  0  0  0     0  0            999 V3000
M  V30 BEGIN CTAB
M  V30 COUNTS 13 14 0 0 0
M  V30 BEGIN ATOM
M  V30 1 C 1.3337 -0.77 0 0
M  V30 2 C 1.3337 -2.31 0 0
M  V30 3 N 2.5796 -3.2152 0 0
M  V30 4 O 2.1037 -4.6798 0 0
M  V30 5 C 0.5637 -4.6798 0 0
M  V30 6 C -0.3415 -5.9257 0 0
M  V30 7 C 0.0878 -3.2152 0 0
M  V30 8 C -1.3768 -2.7393 0 0
M  V30 9 C -2.5213 -3.7698 0 0
M  V30 10 C -3.9859 -3.2939 0 0
M  V30 11 C -4.3061 -1.7875 0 0
M  V30 12 C -3.1616 -0.7571 0 0
M  V30 13 C -1.697 -1.233 0 0
M  V30 END ATOM
M  V30 BEGIN BOND
M  V30 1 1 1 2
M  V30 2 2 2 3
M  V30 3 1 3 4
M  V30 4 1 4 5
M  V30 5 1 5 6
M  V30 6 2 5 7
M  V30 7 1 2 7
M  V30 8 1 7 8
M  V30 9 1 8 9
M  V30 10 2 9 10
M  V30 11 1 10 11
M  V30 12 2 11 12
M  V30 13 1 12 13
M  V30 14 2 8 13
M  V30 END BOND
M  V30 END CTAB
M  END
>  <Catalog ID>
Z1255374820

>  <MW>
173.084

>  <MW (desalted)>
173.211

>  <ClogP>
1.947

>  <logS>
-2.51

>  <HBD>
0

>  <HBA>
1

>  <TPSA>
26.03

>  <RotBonds>
1

$$$$

  Mrv2205 11102315382D          

  0  0  0     0  0            999 V3000
M  V30 BEGIN CTAB
M  V30 COUNTS 10 11 0 0 0
M  V30 BEGIN ATOM
M  V30 1 F 7.5913 4.3828 0 0
M  V30 2 C 6.2576 3.6128 0 0
M  V30 3 C 6.2576 2.0728 0 0
M  V30 4 C 4.9239 1.3028 0 0
M  V30 5 C 3.5902 2.0728 0 0
M  V30 6 N 2.1256 1.5969 0 0
M  V30 7 C 1.2204 2.8428 0 0
M  V30 8 C 2.1256 4.0887 0 0
M  V30 9 C 3.5902 3.6128 0 0
M  V30 10 C 4.9239 4.3828 0 0
M  V30 END ATOM
M  V30 BEGIN BOND
M  V30 1 1 1 2
M  V30 2 1 2 3
M  V30 3 2 3 4
M  V30 4 1 4 5
M  V30 5 1 5 6
M  V30 6 1 6 7
M  V30 7 2 7 8
M  V30 8 1 8 9
M  V30 9 2 5 9
M  V30 10 1 9 10
M  V30 11 2 2 10
M  V30 END BOND
M  V30 END CTAB
M  END
>  <Catalog ID>
Z1160902020

>  <MW>
135.048

>  <MW (desalted)>
135.138

>  <ClogP>
2.443

>  <logS>
-2.54

>  <HBD>
1

>  <HBA>
0

>  <TPSA>
15.79

>  <RotBonds>
0

$$$$

  Mrv2205 11102315382D          

  0  0  0     0  0            999 V3000
M  V30 BEGIN CTAB
M  V30 COUNTS 11 11 0 0 0
M  V30 BEGIN ATOM
M  V30 1 O -1.3337 6.93 0 0
M  V30 2 C 0 6.16 0 0
M  V30 3 O 1.3337 6.93 0 0
M  V30 4 C 0 4.62 0 0
M  V30 5 O 1.3337 3.85 0 0
M  V30 6 C 1.3337 2.31 0 0
M  V30 7 C 2.6674 1.54 0 0
M  V30 8 C 2.6674 -0 0 0
M  V30 9 C 1.3337 -0.77 0 0
M  V30 10 C 0 0 0 0
M  V30 11 C 0 1.54 0 0
M  V30 END ATOM
M  V30 BEGIN BOND
M  V30 1 1 1 2
M  V30 2 2 2 3
M  V30 3 1 2 4
M  V30 4 1 4 5
M  V30 5 1 5 6
M  V30 6 1 6 7
M  V30 7 2 7 8
M  V30 8 1 8 9
M  V30 9 2 9 10
M  V30 10 1 10 11
M  V30 11 2 6 11
M  V30 END BOND
M  V30 END CTAB
M  END
>  <Catalog ID>
Z57182011

>  <MW>
152.047

>  <MW (desalted)>
152.147

>  <ClogP>
1.35

>  <logS>
-1.47

>  <HBD>
1

>  <HBA>
3

>  <TPSA>
46.53

>  <RotBonds>
3

$$$$

  Mrv2205 11102315382D          

  0  0  0     0  0            999 V3000
M  V30 BEGIN CTAB
M  V30 COUNTS 11 12 0 0 0
M  V30 BEGIN ATOM
M  V30 1 O 0.1434 -4.3335 0 0
M  V30 2 C 1.6497 -4.0133 0 0
M  V30 3 N 2.1256 -2.5487 0 0
M  V30 4 C 1.2204 -1.3028 0 0
M  V30 5 N 2.1256 -0.0569 0 0
M  V30 6 C 3.5902 -0.5328 0 0
M  V30 7 C 4.9239 0.2372 0 0
M  V30 8 C 6.2576 -0.5328 0 0
M  V30 9 C 6.2576 -2.0728 0 0
M  V30 10 C 4.9239 -2.8428 0 0
M  V30 11 C 3.5902 -2.0728 0 0
M  V30 END ATOM
M  V30 BEGIN BOND
M  V30 1 1 1 2
M  V30 2 1 2 3
M  V30 3 1 3 4
M  V30 4 2 4 5
M  V30 5 1 5 6
M  V30 6 1 6 7
M  V30 7 2 7 8
M  V30 8 1 8 9
M  V30 9 2 9 10
M  V30 10 1 10 11
M  V30 11 1 3 11
M  V30 12 2 6 11
M  V30 END BOND
M  V30 END CTAB
M  END
>  <Catalog ID>
Z56926682

>  <MW>
148.064

>  <MW (desalted)>
148.162

>  <ClogP>
0.604

>  <logS>
-1.18

>  <HBD>
1

>  <HBA>
2

>  <TPSA>
38.05

>  <RotBonds>
1

$$$$

  Mrv2205 11102315382D          

  0  0  0     0  0            999 V3000
M  V30 BEGIN CTAB
M  V30 COUNTS 11 12 0 0 0
M  V30 BEGIN ATOM
M  V30 1 N 0 -3.08 0 0
M  V30 2 C 1.3337 -2.31 0 0
M  V30 3 C 1.3337 -0.77 0 0
M  V30 4 C 2.6674 0 0 0
M  V30 5 C 4.001 -0.77 0 0
M  V30 6 N 5.3347 0 0 0
M  V30 7 C 6.6684 -0.77 0 0
M  V30 8 C 6.6684 -2.31 0 0
M  V30 9 C 5.3347 -3.08 0 0
M  V30 10 C 4.001 -2.31 0 0
M  V30 11 C 2.6674 -3.08 0 0
M  V30 END ATOM
M  V30 BEGIN BOND
M  V30 1 1 1 2
M  V30 2 1 2 3
M  V30 3 2 3 4
M  V30 4 1 4 5
M  V30 5 1 5 6
M  V30 6 2 6 7
M  V30 7 1 7 8
M  V30 8 2 8 9
M  V30 9 1 9 10
M  V30 10 2 5 10
M  V30 11 1 10 11
M  V30 12 2 2 11
M  V30 END BOND
M  V30 END CTAB
M  END
>  <Catalog ID>
Z255114686

>  <MW>
144.069

>  <MW (desalted)>
144.173

>  <ClogP>
1.477

>  <logS>
-1.85

>  <HBD>
1

>  <HBA>
2

>  <TPSA>
38.91

>  <RotBonds>
0

$$$$

  Mrv2205 11102315382D          

  0  0  0     0  0            999 V3000
M  V30 BEGIN CTAB
M  V30 COUNTS 11 12 0 0 0
M  V30 BEGIN ATOM
M  V30 1 O -0.8454 -1.8096 0 0
M  V30 2 C -0.0754 -0.4759 0 0
M  V30 3 O -0.8454 0.8578 0 0
M  V30 4 C 1.4646 -0.4759 0 0
M  V30 5 C 2.3698 0.77 0 0
M  V30 6 C 3.8344 0.2941 0 0
M  V30 7 O 5.2991 0.77 0 0
M  V30 8 C 6.2043 -0.4759 0 0
M  V30 9 C 5.2991 -1.7218 0 0
M  V30 10 C 3.8344 -1.2459 0 0
M  V30 11 N 2.3698 -1.7218 0 0
M  V30 END ATOM
M  V30 BEGIN BOND
M  V30 1 1 1 2
M  V30 2 2 2 3
M  V30 3 1 2 4
M  V30 4 2 4 5
M  V30 5 1 5 6
M  V30 6 1 6 7
M  V30 7 1 7 8
M  V30 8 2 8 9
M  V30 9 1 9 10
M  V30 10 2 6 10
M  V30 11 1 10 11
M  V30 12 1 4 11
M  V30 END BOND
M  V30 END CTAB
M  END
>  <Catalog ID>
Z1198172211

>  <MW>
151.027

>  <MW (desalted)>
151.12

>  <ClogP>
1.517

>  <logS>
-1.59

>  <HBD>
2

>  <HBA>
2

>  <TPSA>
66.23

>  <RotBonds>
1

$$$$

  Mrv2205 11102315382D          

  0  0  0     0  0            999 V3000
M  V30 BEGIN CTAB
M  V30 COUNTS 13 14 0 0 0
M  V30 BEGIN ATOM
M  V30 1 N -1.8596 -1.3028 0 0
M  V30 2 S -0.3196 -1.3028 0 0
M  V30 3 O -0.3196 -2.8428 0 0
M  V30 4 O -0.3196 0.2372 0 0
M  V30 5 C 1.2204 -1.3028 0 0
M  V30 6 N 2.1256 -0.0569 0 0
M  V30 7 C 3.5902 -0.5328 0 0
M  V30 8 C 4.9239 0.2372 0 0
M  V30 9 C 6.2576 -0.5328 0 0
M  V30 10 C 6.2576 -2.0728 0 0
M  V30 11 C 4.9239 -2.8428 0 0
M  V30 12 C 3.5902 -2.0728 0 0
M  V30 13 N 2.1256 -2.5487 0 0
M  V30 END ATOM
M  V30 BEGIN BOND
M  V30 1 1 1 2
M  V30 2 2 2 3
M  V30 3 2 2 4
M  V30 4 1 2 5
M  V30 5 2 5 6
M  V30 6 1 6 7
M  V30 7 1 7 8
M  V30 8 2 8 9
M  V30 9 1 9 10
M  V30 10 2 10 11
M  V30 11 1 11 12
M  V30 12 2 7 12
M  V30 13 1 12 13
M  V30 14 1 5 13
M  V30 END BOND
M  V30 END CTAB
M  END
>  <Catalog ID>
Z969591530

>  <MW>
197.026

>  <MW (desalted)>
197.214

>  <ClogP>
0.749

>  <logS>
-2.49

>  <HBD>
2

>  <HBA>
3

>  <TPSA>
88.84

>  <RotBonds>
1

$$$$

  Mrv2205 11102315382D          

  0  0  0     0  0            999 V3000
M  V30 BEGIN CTAB
M  V30 COUNTS 16 17 0 0 0
M  V30 BEGIN ATOM
M  V30 1 F 1.3337 0.77 0 0
M  V30 2 C 1.3337 -0.77 0 0
M  V30 3 F -0.2063 -0.77 0 0
M  V30 4 F 2.8737 -0.77 0 0
M  V30 5 C 1.3337 -2.31 0 0
M  V30 6 C 2.6674 -3.08 0 0
M  V30 7 C 2.6674 -4.62 0 0
M  V30 8 N 1.3337 -5.39 0 0
M  V30 9 C 0 -4.62 0 0
M  V30 10 N 0 -3.08 0 0
M  V30 11 N -1.3337 -5.39 0 0
M  V30 12 C -1.3337 -6.93 0 0
M  V30 13 C -2.6674 -7.7 0 0
M  V30 14 N -4.001 -6.93 0 0
M  V30 15 C -4.001 -5.39 0 0
M  V30 16 C -2.6674 -4.62 0 0
M  V30 END ATOM
M  V30 BEGIN BOND
M  V30 1 1 1 2
M  V30 2 1 2 3
M  V30 3 1 2 4
M  V30 4 1 2 5
M  V30 5 1 5 6
M  V30 6 2 6 7
M  V30 7 1 7 8
M  V30 8 2 8 9
M  V30 9 1 9 10
M  V30 10 2 5 10
M  V30 11 1 9 11
M  V30 12 1 11 12
M  V30 13 1 12 13
M  V30 14 1 13 14
M  V30 15 1 14 15
M  V30 16 1 15 16
M  V30 17 1 11 16
M  V30 END BOND
M  V30 END CTAB
M  END
>  <Catalog ID>
Z1117899682

>  <MW>
232.094

>  <MW (desalted)>
232.206

>  <ClogP>
0.811

>  <logS>
-2.01

>  <HBD>
1

>  <HBA>
4

>  <TPSA>
41.05

>  <RotBonds>
2

$$$$

  Mrv2205 11102315382D          

  0  0  0     0  0            999 V3000
M  V30 BEGIN CTAB
M  V30 COUNTS 11 11 0 0 0
M  V30 BEGIN ATOM
M  V30 1 C 0 4.62 0 0
M  V30 2 O 1.3337 3.85 0 0
M  V30 3 C 1.3337 2.31 0 0
M  V30 4 C 2.6674 1.54 0 0
M  V30 5 C 2.6674 -0 0 0
M  V30 6 C 1.3337 -0.77 0 0
M  V30 7 C 0 0 0 0
M  V30 8 C 0 1.54 0 0
M  V30 9 C -1.3337 2.31 0 0
M  V30 10 O -1.3337 3.85 0 0
M  V30 11 O -2.6674 1.54 0 0
M  V30 END ATOM
M  V30 BEGIN BOND
M  V30 1 1 1 2
M  V30 2 1 2 3
M  V30 3 1 3 4
M  V30 4 2 4 5
M  V30 5 1 5 6
M  V30 6 2 6 7
M  V30 7 1 7 8
M  V30 8 2 3 8
M  V30 9 1 8 9
M  V30 10 2 9 10
M  V30 11 1 9 11
M  V30 END BOND
M  V30 END CTAB
M  END
>  <Catalog ID>
Z57127524

>  <MW>
152.047

>  <MW (desalted)>
152.147

>  <ClogP>
1.594

>  <logS>
-1.55

>  <HBD>
1

>  <HBA>
3

>  <TPSA>
46.53

>  <RotBonds>
2

$$$$

  Mrv2205 11102315382D          

  0  0  0     0  0            999 V3000
M  V30 BEGIN CTAB
M  V30 COUNTS 12 12 0 0 0
M  V30 BEGIN ATOM
M  V30 1 O 0 6.16 0 0
M  V30 2 C 0 4.62 0 0
M  V30 3 O -1.3337 3.85 0 0
M  V30 4 C 1.3337 3.85 0 0
M  V30 5 C 1.3337 2.31 0 0
M  V30 6 C 2.6674 1.54 0 0
M  V30 7 C 2.6674 -0 0 0
M  V30 8 C 1.3337 -0.77 0 0
M  V30 9 Cl 1.3337 -2.31 0 0
M  V30 10 C 0 0 0 0
M  V30 11 Cl -1.3337 -0.77 0 0
M  V30 12 C 0 1.54 0 0
M  V30 END ATOM
M  V30 BEGIN BOND
M  V30 1 1 1 2
M  V30 2 2 2 3
M  V30 3 1 2 4
M  V30 4 1 4 5
M  V30 5 1 5 6
M  V30 6 2 6 7
M  V30 7 1 7 8
M  V30 8 1 8 9
M  V30 9 2 8 10
M  V30 10 1 10 11
M  V30 11 1 10 12
M  V30 12 2 5 12
M  V30 END BOND
M  V30 END CTAB
M  END
>  <Catalog ID>
Z104476066

>  <MW>
203.974

>  <MW (desalted)>
205.038

>  <ClogP>
2.72

>  <logS>
-2.58

>  <HBD>
1

>  <HBA>
2

>  <TPSA>
37.3

>  <RotBonds>
2

$$$$

  Mrv2205 11102315382D          

  0  0  0     0  0            999 V3000
M  V30 BEGIN CTAB
M  V30 COUNTS 12 13 0 0 0
M  V30 BEGIN ATOM
M  V30 1 O 1.3337 -5.39 0 0
M  V30 2 C 2.6674 -4.62 0 0
M  V30 3 C 2.6674 -3.08 0 0
M  V30 4 C 1.3337 -2.31 0 0
M  V30 5 C 1.3337 -0.77 0 0
M  V30 6 C 2.6674 0 0 0
M  V30 7 C 4.001 -0.77 0 0
M  V30 8 O 5.3347 0 0 0
M  V30 9 C 6.6684 -0.77 0 0
M  V30 10 C 6.6684 -2.31 0 0
M  V30 11 O 5.3347 -3.08 0 0
M  V30 12 C 4.001 -2.31 0 0
M  V30 END ATOM
M  V30 BEGIN BOND
M  V30 1 1 1 2
M  V30 2 1 2 3
M  V30 3 1 3 4
M  V30 4 2 4 5
M  V30 5 1 5 6
M  V30 6 2 6 7
M  V30 7 1 7 8
M  V30 8 1 8 9
M  V30 9 1 9 10
M  V30 10 1 10 11
M  V30 11 1 11 12
M  V30 12 2 3 12
M  V30 13 1 7 12
M  V30 END BOND
M  V30 END CTAB
M  END
>  <Catalog ID>
Z440625162

>  <MW>
166.063

>  <MW (desalted)>
166.174

>  <ClogP>
1.028

>  <logS>
-1.45

>  <HBD>
1

>  <HBA>
3

>  <TPSA>
38.69

>  <RotBonds>
1

$$$$

  Mrv2205 11102315382D          

  0  0  0     0  0            999 V3000
M  V30 BEGIN CTAB
M  V30 COUNTS 12 13 0 0 0
M  V30 BEGIN ATOM
M  V30 1 C 1.6775 -4.2597 0 0
M  V30 2 C 2.6674 -3.08 0 0
M  V30 3 C 3.6573 -4.2597 0 0
M  V30 4 C 1.3337 -2.31 0 0
M  V30 5 N 1.3337 -0.77 0 0
M  V30 6 C 2.6674 0 0 0
M  V30 7 C 4.001 -0.77 0 0
M  V30 8 C 5.3347 0 0 0
M  V30 9 C 6.6684 -0.77 0 0
M  V30 10 C 6.6684 -2.31 0 0
M  V30 11 C 5.3347 -3.08 0 0
M  V30 12 C 4.001 -2.31 0 0
M  V30 END ATOM
M  V30 BEGIN BOND
M  V30 1 1 1 2
M  V30 2 1 2 3
M  V30 3 1 2 4
M  V30 4 1 4 5
M  V30 5 1 5 6
M  V30 6 1 6 7
M  V30 7 1 7 8
M  V30 8 2 8 9
M  V30 9 1 9 10
M  V30 10 2 10 11
M  V30 11 1 11 12
M  V30 12 2 7 12
M  V30 13 1 2 12
M  V30 END BOND
M  V30 END CTAB
M  END
>  <Catalog ID>
Z1198176426

>  <MW>
161.12

>  <MW (desalted)>
161.244

>  <ClogP>
2.633

>  <logS>
-1.28

>  <HBD>
1

>  <HBA>
1

>  <TPSA>
12.03

>  <RotBonds>
0

$$$$

  Mrv2205 11102315382D          

  0  0  0     0  0            999 V3000
M  V30 BEGIN CTAB
M  V30 COUNTS 12 13 0 0 0
M  V30 BEGIN ATOM
M  V30 1 Br 1.3337 12.63 0 0
M  V30 2 C 1.3337 11.09 0 0
M  V30 3 C 2.6674 10.32 0 0
M  V30 4 C 2.6674 8.78 0 0
M  V30 5 C 1.3337 8.01 0 0
M  V30 6 C 0 8.78 0 0
M  V30 7 C 0 10.32 0 0
M  V30 8 C 1.3337 6.47 0 0
M  V30 9 C 2.5796 5.5648 0 0
M  V30 10 N 2.1037 4.1002 0 0
M  V30 11 C 0.5637 4.1002 0 0
M  V30 12 N 0.0878 5.5648 0 0
M  V30 END ATOM
M  V30 BEGIN BOND
M  V30 1 1 1 2
M  V30 2 1 2 3
M  V30 3 2 3 4
M  V30 4 1 4 5
M  V30 5 2 5 6
M  V30 6 1 6 7
M  V30 7 2 2 7
M  V30 8 1 5 8
M  V30 9 2 8 9
M  V30 10 1 9 10
M  V30 11 1 10 11
M  V30 12 2 11 12
M  V30 13 1 8 12
M  V30 END BOND
M  V30 END CTAB
M  END
>  <Catalog ID>
Z1269191577

>  <MW>
221.979

>  <MW (desalted)>
223.069

>  <ClogP>
2.953

>  <logS>
-3.35

>  <HBD>
1

>  <HBA>
1

>  <TPSA>
28.68

>  <RotBonds>
1

$$$$

  Mrv2205 11102315382D          

  0  0  0     0  0            999 V3000
M  V30 BEGIN CTAB
M  V30 COUNTS 13 14 0 0 0
M  V30 BEGIN ATOM
M  V30 1 C 0.1434 -4.3335 0 0
M  V30 2 C 1.6497 -4.0133 0 0
M  V30 3 O 2.6802 -5.1578 0 0
M  V30 4 C 2.1256 -2.5487 0 0
M  V30 5 C 1.2204 -1.3028 0 0
M  V30 6 N 2.1256 -0.0569 0 0
M  V30 7 C 1.6497 1.4077 0 0
M  V30 8 C 3.5902 -0.5328 0 0
M  V30 9 C 4.9239 0.2372 0 0
M  V30 10 C 6.2576 -0.5328 0 0
M  V30 11 C 6.2576 -2.0728 0 0
M  V30 12 C 4.9239 -2.8428 0 0
M  V30 13 C 3.5902 -2.0728 0 0
M  V30 END ATOM
M  V30 BEGIN BOND
M  V30 1 1 1 2
M  V30 2 2 2 3
M  V30 3 1 2 4
M  V30 4 2 4 5
M  V30 5 1 5 6
M  V30 6 1 6 7
M  V30 7 1 6 8
M  V30 8 1 8 9
M  V30 9 2 9 10
M  V30 10 1 10 11
M  V30 11 2 11 12
M  V30 12 1 12 13
M  V30 13 1 4 13
M  V30 14 2 8 13
M  V30 END BOND
M  V30 END CTAB
M  END
>  <Catalog ID>
Z57070074

>  <MW>
173.084

>  <MW (desalted)>
173.211

>  <ClogP>
2.22

>  <logS>
-1.82

>  <HBD>
0

>  <HBA>
1

>  <TPSA>
22

>  <RotBonds>
1

$$$$

  Mrv2205 11102315382D          

  0  0  0     0  0            999 V3000
M  V30 BEGIN CTAB
M  V30 COUNTS 15 16 0 0 0
M  V30 BEGIN ATOM
M  V30 1 O 0 0 0 0
M  V30 2 C 1.3337 -0.77 0 0
M  V30 3 O 2.6674 0 0 0
M  V30 4 C 1.3337 -2.31 0 0
M  V30 5 C 2.6674 -3.08 0 0
M  V30 6 C 2.6674 -4.62 0 0
M  V30 7 C 1.3337 -5.39 0 0
M  V30 8 N 0 -4.62 0 0
M  V30 9 C 0 -3.08 0 0
M  V30 10 C 1.3337 -6.93 0 0
M  V30 11 C 2.6674 -7.7 0 0
M  V30 12 C 2.6674 -9.24 0 0
M  V30 13 C 1.3337 -10.01 0 0
M  V30 14 C 0 -9.24 0 0
M  V30 15 C 0 -7.7 0 0
M  V30 END ATOM
M  V30 BEGIN BOND
M  V30 1 1 1 2
M  V30 2 2 2 3
M  V30 3 1 2 4
M  V30 4 1 4 5
M  V30 5 2 5 6
M  V30 6 1 6 7
M  V30 7 2 7 8
M  V30 8 1 8 9
M  V30 9 2 4 9
M  V30 10 1 7 10
M  V30 11 1 10 11
M  V30 12 2 11 12
M  V30 13 1 12 13
M  V30 14 2 13 14
M  V30 15 1 14 15
M  V30 16 2 10 15
M  V30 END BOND
M  V30 END CTAB
M  END
>  <Catalog ID>
Z1201621962

>  <MW>
199.063

>  <MW (desalted)>
199.205

>  <ClogP>
2.897

>  <logS>
-2.708

>  <HBD>
1

>  <HBA>
3

>  <TPSA>
50.19

>  <RotBonds>
2

$$$$

  Mrv2205 11102315382D          

  0  0  0     0  0            999 V3000
M  V30 BEGIN CTAB
M  V30 COUNTS 11 11 0 0 0
M  V30 BEGIN ATOM
M  V30 1 C 0 4.62 0 0
M  V30 2 C 1.3337 3.85 0 0
M  V30 3 O 2.6674 4.62 0 0
M  V30 4 C 1.3337 2.31 0 0
M  V30 5 C 2.6674 1.54 0 0
M  V30 6 C 2.6674 -0 0 0
M  V30 7 C 1.3337 -0.77 0 0
M  V30 8 O 1.3337 -2.31 0 0
M  V30 9 C 0 0 0 0
M  V30 10 C -1.3337 -0.77 0 0
M  V30 11 C 0 1.54 0 0
M  V30 END ATOM
M  V30 BEGIN BOND
M  V30 1 1 1 2
M  V30 2 2 2 3
M  V30 3 1 2 4
M  V30 4 1 4 5
M  V30 5 2 5 6
M  V30 6 1 6 7
M  V30 7 1 7 8
M  V30 8 2 7 9
M  V30 9 1 9 10
M  V30 10 1 9 11
M  V30 11 2 4 11
M  V30 END BOND
M  V30 END CTAB
M  END
>  <Catalog ID>
Z57221419

>  <MW>
150.068

>  <MW (desalted)>
150.175

>  <ClogP>
1.904

>  <logS>
-1.63

>  <HBD>
1

>  <HBA>
2

>  <TPSA>
37.3

>  <RotBonds>
1

$$$$

  Mrv2205 11102315382D          

  0  0  0     0  0            999 V3000
M  V30 BEGIN CTAB
M  V30 COUNTS 12 13 0 0 0
M  V30 BEGIN ATOM
M  V30 1 O 0 -3.08 0 0
M  V30 2 C 1.3337 -2.31 0 0
M  V30 3 C 1.3337 -0.77 0 0
M  V30 4 C 2.6674 0 0 0
M  V30 5 C 4.001 -0.77 0 0
M  V30 6 C 5.3347 0 0 0
M  V30 7 O 5.3347 1.54 0 0
M  V30 8 C 6.6684 -0.77 0 0
M  V30 9 C 6.6684 -2.31 0 0
M  V30 10 C 5.3347 -3.08 0 0
M  V30 11 C 4.001 -2.31 0 0
M  V30 12 C 2.6674 -3.08 0 0
M  V30 END ATOM
M  V30 BEGIN BOND
M  V30 1 1 1 2
M  V30 2 1 2 3
M  V30 3 2 3 4
M  V30 4 1 4 5
M  V30 5 1 5 6
M  V30 6 2 6 7
M  V30 7 1 6 8
M  V30 8 1 8 9
M  V30 9 1 9 10
M  V30 10 1 10 11
M  V30 11 2 5 11
M  V30 12 1 11 12
M  V30 13 2 2 12
M  V30 END BOND
M  V30 END CTAB
M  END
>  <Catalog ID>
Z877546758

>  <MW>
162.068

>  <MW (desalted)>
162.185

>  <ClogP>
1.999

>  <logS>
-2.08

>  <HBD>
1

>  <HBA>
2

>  <TPSA>
37.3

>  <RotBonds>
0

$$$$

  Mrv2205 11102315382D          

  0  0  0     0  0            999 V3000
M  V30 BEGIN CTAB
M  V30 COUNTS 9 9 0 0 0
M  V30 BEGIN ATOM
M  V30 1 C 1.3337 3.85 0 0
M  V30 2 C 1.3337 2.31 0 0
M  V30 3 N 2.6674 1.54 0 0
M  V30 4 C 2.6674 -0 0 0
M  V30 5 N 4.001 -0.77 0 0
M  V30 6 C 1.3337 -0.77 0 0
M  V30 7 C 0 0 0 0
M  V30 8 C 0 1.54 0 0
M  V30 9 Br -1.3337 2.31 0 0
M  V30 END ATOM
M  V30 BEGIN BOND
M  V30 1 1 1 2
M  V30 2 1 2 3
M  V30 3 2 3 4
M  V30 4 1 4 5
M  V30 5 1 4 6
M  V30 6 2 6 7
M  V30 7 1 7 8
M  V30 8 2 2 8
M  V30 9 1 8 9
M  V30 END BOND
M  V30 END CTAB
M  END
>  <Catalog ID>
Z57376600

>  <MW>
185.979

>  <MW (desalted)>
187.037

>  <ClogP>
1.803

>  <logS>
-1.92

>  <HBD>
1

>  <HBA>
2

>  <TPSA>
38.91

>  <RotBonds>
0

$$$$

  Mrv2205 11102315382D          

  0  0  0     0  0            999 V3000
M  V30 BEGIN CTAB
M  V30 COUNTS 10 11 0 0 0
M  V30 BEGIN ATOM
M  V30 1 C -0.3196 -1.3028 0 0
M  V30 2 C 1.2204 -1.3028 0 0
M  V30 3 C 2.1256 -0.0569 0 0
M  V30 4 C 3.5902 -0.5328 0 0
M  V30 5 C 4.9239 0.2372 0 0
M  V30 6 C 6.2576 -0.5328 0 0
M  V30 7 C 6.2576 -2.0728 0 0
M  V30 8 C 4.9239 -2.8428 0 0
M  V30 9 C 3.5902 -2.0728 0 0
M  V30 10 N 2.1256 -2.5487 0 0
M  V30 END ATOM
M  V30 BEGIN BOND
M  V30 1 1 1 2
M  V30 2 2 2 3
M  V30 3 1 3 4
M  V30 4 1 4 5
M  V30 5 2 5 6
M  V30 6 1 6 7
M  V30 7 2 7 8
M  V30 8 1 8 9
M  V30 9 2 4 9
M  V30 10 1 9 10
M  V30 11 1 2 10
M  V30 END BOND
M  V30 END CTAB
M  END
>  <Catalog ID>
Z57200682

>  <MW>
131.073

>  <MW (desalted)>
131.174

>  <ClogP>
2.631

>  <logS>
-2.43

>  <HBD>
1

>  <HBA>
0

>  <TPSA>
15.79

>  <RotBonds>
0

$$$$

  Mrv2205 11102315382D          

  0  0  0     0  0            999 V3000
M  V30 BEGIN CTAB
M  V30 COUNTS 11 11 0 0 0
M  V30 BEGIN ATOM
M  V30 1 C 1.3337 3.85 0 0
M  V30 2 C 1.3337 2.31 0 0
M  V30 3 C 2.6674 1.54 0 0
M  V30 4 C 2.6674 -0 0 0
M  V30 5 C 1.3337 -0.77 0 0
M  V30 6 N 1.3337 -2.31 0 0
M  V30 7 C 0 0 0 0
M  V30 8 C 0 1.54 0 0
M  V30 9 C -1.3337 -0.77 0 0
M  V30 10 O -2.6674 0 0 0
M  V30 11 O -1.3337 -2.31 0 0
M  V30 END ATOM
M  V30 BEGIN BOND
M  V30 1 1 1 2
M  V30 2 1 2 3
M  V30 3 2 3 4
M  V30 4 1 4 5
M  V30 5 1 5 6
M  V30 6 2 5 7
M  V30 7 1 7 8
M  V30 8 2 2 8
M  V30 9 1 7 9
M  V30 10 2 9 10
M  V30 11 1 9 11
M  V30 END BOND
M  V30 END CTAB
M  END
>  <Catalog ID>
Z111833788

>  <MW>
151.063

>  <MW (desalted)>
151.163

>  <ClogP>
1.707

>  <logS>
-1.86

>  <HBD>
2

>  <HBA>
3

>  <TPSA>
63.32

>  <RotBonds>
1

$$$$

  Mrv2205 11102315382D          

  0  0  0     0  0            999 V3000
M  V30 BEGIN CTAB
M  V30 COUNTS 13 14 0 0 0
M  V30 BEGIN ATOM
M  V30 1 N 8.925 5.1528 0 0
M  V30 2 S 7.5913 4.3828 0 0
M  V30 3 O 6.8213 5.7165 0 0
M  V30 4 O 8.3613 3.0491 0 0
M  V30 5 C 6.2576 3.6128 0 0
M  V30 6 C 6.2576 2.0728 0 0
M  V30 7 C 4.9239 1.3028 0 0
M  V30 8 C 3.5902 2.0728 0 0
M  V30 9 C 2.1256 1.5969 0 0
M  V30 10 C 1.2204 2.8428 0 0
M  V30 11 C 2.1256 4.0887 0 0
M  V30 12 C 3.5902 3.6128 0 0
M  V30 13 C 4.9239 4.3828 0 0
M  V30 END ATOM
M  V30 BEGIN BOND
M  V30 1 1 1 2
M  V30 2 2 2 3
M  V30 3 2 2 4
M  V30 4 1 2 5
M  V30 5 1 5 6
M  V30 6 2 6 7
M  V30 7 1 7 8
M  V30 8 1 8 9
M  V30 9 1 9 10
M  V30 10 1 10 11
M  V30 11 1 11 12
M  V30 12 2 8 12
M  V30 13 1 12 13
M  V30 14 2 5 13
M  V30 END BOND
M  V30 END CTAB
M  END
>  <Catalog ID>
Z45415660

>  <MW>
197.051

>  <MW (desalted)>
197.254

>  <ClogP>
1.318

>  <logS>
-2.75

>  <HBD>
1

>  <HBA>
2

>  <TPSA>
60.16

>  <RotBonds>
1

$$$$

  Mrv2205 11102315382D          

  0  0  0     0  0            999 V3000
M  V30 BEGIN CTAB
M  V30 COUNTS 11 11 0 0 0
M  V30 BEGIN ATOM
M  V30 1 N 1.3337 5.39 0 0
M  V30 2 S 1.3337 3.85 0 0
M  V30 3 O -0.2063 3.85 0 0
M  V30 4 O 2.8737 3.85 0 0
M  V30 5 C 1.3337 2.31 0 0
M  V30 6 C 2.6674 1.54 0 0
M  V30 7 C 2.6674 -0 0 0
M  V30 8 C 1.3337 -0.77 0 0
M  V30 9 C 0 0 0 0
M  V30 10 C 0 1.54 0 0
M  V30 11 F -1.3337 2.31 0 0
M  V30 END ATOM
M  V30 BEGIN BOND
M  V30 1 1 1 2
M  V30 2 2 2 3
M  V30 3 2 2 4
M  V30 4 1 2 5
M  V30 5 1 5 6
M  V30 6 2 6 7
M  V30 7 1 7 8
M  V30 8 2 8 9
M  V30 9 1 9 10
M  V30 10 2 5 10
M  V30 11 1 10 11
M  V30 END BOND
M  V30 END CTAB
M  END
>  <Catalog ID>
Z45415581

>  <MW>
175.01

>  <MW (desalted)>
175.181

>  <ClogP>
0.694

>  <logS>
-1.62

>  <HBD>
1

>  <HBA>
2

>  <TPSA>
60.16

>  <RotBonds>
1

$$$$

  Mrv2205 11102315382D          

  0  0  0     0  0            999 V3000
M  V30 BEGIN CTAB
M  V30 COUNTS 11 12 0 0 0
M  V30 BEGIN ATOM
M  V30 1 C 2.1037 -4.6798 0 0
M  V30 2 C 0.5637 -4.6798 0 0
M  V30 3 N 0.0878 -3.2152 0 0
M  V30 4 C 1.3337 -2.31 0 0
M  V30 5 N 2.5796 -3.2152 0 0
M  V30 6 C 1.3337 -0.77 0 0
M  V30 7 C 0 0 0 0
M  V30 8 C 0 1.54 0 0
M  V30 9 N 1.3337 2.31 0 0
M  V30 10 C 2.6674 1.54 0 0
M  V30 11 C 2.6674 -0 0 0
M  V30 END ATOM
M  V30 BEGIN BOND
M  V30 1 2 1 2
M  V30 2 1 2 3
M  V30 3 1 3 4
M  V30 4 2 4 5
M  V30 5 1 1 5
M  V30 6 1 4 6
M  V30 7 1 6 7
M  V30 8 2 7 8
M  V30 9 1 8 9
M  V30 10 2 9 10
M  V30 11 1 10 11
M  V30 12 2 6 11
M  V30 END BOND
M  V30 END CTAB
M  END
>  <Catalog ID>
Z728187792

>  <MW>
145.064

>  <MW (desalted)>
145.161

>  <ClogP>
0.73

>  <logS>
-0.98

>  <HBD>
1

>  <HBA>
2

>  <TPSA>
41.57

>  <RotBonds>
1

$$$$

  Mrv2205 11102315382D          

  0  0  0     0  0            999 V3000
M  V30 BEGIN CTAB
M  V30 COUNTS 12 12 0 0 0
M  V30 BEGIN ATOM
M  V30 1 C 0 4.62 0 0
M  V30 2 N 1.3337 3.85 0 0
M  V30 3 C 2.6674 4.62 0 0
M  V30 4 C 1.3337 2.31 0 0
M  V30 5 C 2.6674 1.54 0 0
M  V30 6 C 2.6674 -0 0 0
M  V30 7 C 1.3337 -0.77 0 0
M  V30 8 C 0 0 0 0
M  V30 9 N 0 1.54 0 0
M  V30 10 C 1.3337 -2.31 0 0
M  V30 11 O 2.6674 -3.08 0 0
M  V30 12 O -0 -3.08 0 0
M  V30 END ATOM
M  V30 BEGIN BOND
M  V30 1 1 1 2
M  V30 2 1 2 3
M  V30 3 1 2 4
M  V30 4 1 4 5
M  V30 5 2 5 6
M  V30 6 1 6 7
M  V30 7 2 7 8
M  V30 8 1 8 9
M  V30 9 2 4 9
M  V30 10 1 7 10
M  V30 11 2 10 11
M  V30 12 1 10 12
M  V30 END BOND
M  V30 END CTAB
M  END
>  <Catalog ID>
Z330799458

>  <MW>
166.074

>  <MW (desalted)>
166.177

>  <ClogP>
1.514

>  <logS>
-0.83

>  <HBD>
1

>  <HBA>
4

>  <TPSA>
53.43

>  <RotBonds>
2

$$$$

  Mrv2205 11102315382D          

  0  0  0     0  0            999 V3000
M  V30 BEGIN CTAB
M  V30 COUNTS 13 14 0 0 0
M  V30 BEGIN ATOM
M  V30 1 C -0.3325 -5.7982 0 0
M  V30 2 O 0.1434 -4.3335 0 0
M  V30 3 C 1.6497 -4.0133 0 0
M  V30 4 O 2.6802 -5.1578 0 0
M  V30 5 C 2.1256 -2.5487 0 0
M  V30 6 C 1.2204 -1.3028 0 0
M  V30 7 N 2.1256 -0.0569 0 0
M  V30 8 C 3.5902 -0.5328 0 0
M  V30 9 N 4.9239 0.2372 0 0
M  V30 10 C 6.2576 -0.5328 0 0
M  V30 11 C 6.2576 -2.0728 0 0
M  V30 12 C 4.9239 -2.8428 0 0
M  V30 13 C 3.5902 -2.0728 0 0
M  V30 END ATOM
M  V30 BEGIN BOND
M  V30 1 1 1 2
M  V30 2 1 2 3
M  V30 3 2 3 4
M  V30 4 1 3 5
M  V30 5 2 5 6
M  V30 6 1 6 7
M  V30 7 1 7 8
M  V30 8 1 8 9
M  V30 9 2 9 10
M  V30 10 1 10 11
M  V30 11 2 11 12
M  V30 12 1 12 13
M  V30 13 1 5 13
M  V30 14 2 8 13
M  V30 END BOND
M  V30 END CTAB
M  END
>  <Catalog ID>
Z1079133092

>  <MW>
176.059

>  <MW (desalted)>
176.172

>  <ClogP>
1.321

>  <logS>
-1.91

>  <HBD>
1

>  <HBA>
2

>  <TPSA>
54.98

>  <RotBonds>
2

$$$$

  Mrv2205 11102315382D          

  0  0  0     0  0            999 V3000
M  V30 BEGIN CTAB
M  V30 COUNTS 15 16 0 0 0
M  V30 BEGIN ATOM
M  V30 1 O 4.001 -6.93 0 0
M  V30 2 C 4.001 -5.39 0 0
M  V30 3 O 5.3347 -4.62 0 0
M  V30 4 C 2.6674 -4.62 0 0
M  V30 5 C 2.6674 -3.08 0 0
M  V30 6 N 1.3337 -2.31 0 0
M  V30 7 N 1.3337 -0.77 0 0
M  V30 8 C 2.6674 0 0 0
M  V30 9 O 2.6674 1.54 0 0
M  V30 10 C 4.001 -0.77 0 0
M  V30 11 C 5.3347 0 0 0
M  V30 12 C 6.6684 -0.77 0 0
M  V30 13 C 6.6684 -2.31 0 0
M  V30 14 C 5.3347 -3.08 0 0
M  V30 15 C 4.001 -2.31 0 0
M  V30 END ATOM
M  V30 BEGIN BOND
M  V30 1 1 1 2
M  V30 2 2 2 3
M  V30 3 1 2 4
M  V30 4 1 4 5
M  V30 5 2 5 6
M  V30 6 1 6 7
M  V30 7 1 7 8
M  V30 8 2 8 9
M  V30 9 1 8 10
M  V30 10 1 10 11
M  V30 11 2 11 12
M  V30 12 1 12 13
M  V30 13 2 13 14
M  V30 14 1 14 15
M  V30 15 1 5 15
M  V30 16 2 10 15
M  V30 END BOND
M  V30 END CTAB
M  END
>  <Catalog ID>
Z56871698

>  <MW>
204.053

>  <MW (desalted)>
204.182

>  <ClogP>
-0.573

>  <logS>
-2.57

>  <HBD>
2

>  <HBA>
4

>  <TPSA>
78.76

>  <RotBonds>
2

$$$$

  Mrv2205 11102315382D          

  0  0  0     0  0            999 V3000
M  V30 BEGIN CTAB
M  V30 COUNTS 10 10 0 0 0
M  V30 BEGIN ATOM
M  V30 1 N 1.3337 3.85 0 0
M  V30 2 C 1.3337 2.31 0 0
M  V30 3 C 2.6674 1.54 0 0
M  V30 4 C 2.6674 -0 0 0
M  V30 5 C 1.3337 -0.77 0 0
M  V30 6 C 0 0 0 0
M  V30 7 C 0 1.54 0 0
M  V30 8 C 1.3337 -2.31 0 0
M  V30 9 O 2.6674 -3.08 0 0
M  V30 10 O -0 -3.08 0 0
M  V30 END ATOM
M  V30 BEGIN BOND
M  V30 1 1 1 2
M  V30 2 1 2 3
M  V30 3 2 3 4
M  V30 4 1 4 5
M  V30 5 2 5 6
M  V30 6 1 6 7
M  V30 7 2 2 7
M  V30 8 1 5 8
M  V30 9 2 8 9
M  V30 10 1 8 10
M  V30 END BOND
M  V30 END CTAB
M  END
>  <Catalog ID>
Z57127446

>  <MW>
137.048

>  <MW (desalted)>
137.136

>  <ClogP>
0.978

>  <logS>
-1.34

>  <HBD>
2

>  <HBA>
3

>  <TPSA>
63.32

>  <RotBonds>
1

$$$$

  Mrv2205 11102315382D          

  0  0  0     0  0            999 V3000
M  V30 BEGIN CTAB
M  V30 COUNTS 10 10 0 0 0
M  V30 BEGIN ATOM
M  V30 1 O -1.3337 6.93 0 0
M  V30 2 C 0 6.16 0 0
M  V30 3 C 0 4.62 0 0
M  V30 4 O 1.3337 3.85 0 0
M  V30 5 C 1.3337 2.31 0 0
M  V30 6 C 2.6674 1.54 0 0
M  V30 7 C 2.6674 -0 0 0
M  V30 8 C 1.3337 -0.77 0 0
M  V30 9 C 0 0 0 0
M  V30 10 C 0 1.54 0 0
M  V30 END ATOM
M  V30 BEGIN BOND
M  V30 1 1 1 2
M  V30 2 1 2 3
M  V30 3 1 3 4
M  V30 4 1 4 5
M  V30 5 1 5 6
M  V30 6 2 6 7
M  V30 7 1 7 8
M  V30 8 2 8 9
M  V30 9 1 9 10
M  V30 10 2 5 10
M  V30 END BOND
M  V30 END CTAB
M  END
>  <Catalog ID>
Z104473570

>  <MW>
138.068

>  <MW (desalted)>
138.164

>  <ClogP>
1.188

>  <logS>
-1.26

>  <HBD>
1

>  <HBA>
2

>  <TPSA>
29.46

>  <RotBonds>
3

$$$$

  Mrv2205 11102315382D          

  0  0  0     0  0            999 V3000
M  V30 BEGIN CTAB
M  V30 COUNTS 11 12 0 0 0
M  V30 BEGIN ATOM
M  V30 1 N -0.3196 -1.3028 0 0
M  V30 2 C 1.2204 -1.3028 0 0
M  V30 3 N 2.1256 -0.0569 0 0
M  V30 4 C 3.5902 -0.5328 0 0
M  V30 5 C 4.9239 0.2372 0 0
M  V30 6 C 6.2576 -0.5328 0 0
M  V30 7 C 6.2576 -2.0728 0 0
M  V30 8 Br 7.5913 -2.8428 0 0
M  V30 9 C 4.9239 -2.8428 0 0
M  V30 10 C 3.5902 -2.0728 0 0
M  V30 11 S 2.1256 -2.5487 0 0
M  V30 END ATOM
M  V30 BEGIN BOND
M  V30 1 1 1 2
M  V30 2 2 2 3
M  V30 3 1 3 4
M  V30 4 1 4 5
M  V30 5 2 5 6
M  V30 6 1 6 7
M  V30 7 1 7 8
M  V30 8 2 7 9
M  V30 9 1 9 10
M  V30 10 2 4 10
M  V30 11 1 10 11
M  V30 12 1 2 11
M  V30 END BOND
M  V30 END CTAB
M  END
>  <Catalog ID>
Z56858257

>  <MW>
227.936

>  <MW (desalted)>
229.097

>  <ClogP>
2.695

>  <logS>
-3.65

>  <HBD>
1

>  <HBA>
2

>  <TPSA>
38.91

>  <RotBonds>
0

$$$$

  Mrv2205 11102315382D          

  0  0  0     0  0            999 V3000
M  V30 BEGIN CTAB
M  V30 COUNTS 12 13 0 0 0
M  V30 BEGIN ATOM
M  V30 1 C 0 -0 0 0
M  V30 2 N 1.3337 -0.77 0 0
M  V30 3 C 2.6674 0 0 0
M  V30 4 C 4.001 -0.77 0 0
M  V30 5 C 5.3347 0 0 0
M  V30 6 C 6.6684 -0.77 0 0
M  V30 7 C 6.6684 -2.31 0 0
M  V30 8 C 5.3347 -3.08 0 0
M  V30 9 C 4.001 -2.31 0 0
M  V30 10 N 2.6674 -3.08 0 0
M  V30 11 C 1.3337 -2.31 0 0
M  V30 12 O 0 -3.08 0 0
M  V30 END ATOM
M  V30 BEGIN BOND
M  V30 1 1 1 2
M  V30 2 1 2 3
M  V30 3 1 3 4
M  V30 4 1 4 5
M  V30 5 2 5 6
M  V30 6 1 6 7
M  V30 7 2 7 8
M  V30 8 1 8 9
M  V30 9 2 4 9
M  V30 10 1 9 10
M  V30 11 1 10 11
M  V30 12 1 2 11
M  V30 13 2 11 12
M  V30 END BOND
M  V30 END CTAB
M  END
>  <Catalog ID>
Z104476152

>  <MW>
162.079

>  <MW (desalted)>
162.189

>  <ClogP>
1.033

>  <logS>
-1.59

>  <HBD>
1

>  <HBA>
1

>  <TPSA>
32.34

>  <RotBonds>
0

$$$$

  Mrv2205 11102315382D          

  0  0  0     0  0            999 V3000
M  V30 BEGIN CTAB
M  V30 COUNTS 12 13 0 0 0
M  V30 BEGIN ATOM
M  V30 1 O -1.0896 -2.6365 0 0
M  V30 2 C -0.3196 -1.3028 0 0
M  V30 3 O -1.0896 0.0309 0 0
M  V30 4 C 1.2204 -1.3028 0 0
M  V30 5 C 2.1256 -0.0569 0 0
M  V30 6 C 3.5902 -0.5328 0 0
M  V30 7 C 4.9239 0.2372 0 0
M  V30 8 C 6.2576 -0.5328 0 0
M  V30 9 C 6.2576 -2.0728 0 0
M  V30 10 C 4.9239 -2.8428 0 0
M  V30 11 C 3.5902 -2.0728 0 0
M  V30 12 O 2.1256 -2.5487 0 0
M  V30 END ATOM
M  V30 BEGIN BOND
M  V30 1 1 1 2
M  V30 2 2 2 3
M  V30 3 1 2 4
M  V30 4 2 4 5
M  V30 5 1 5 6
M  V30 6 1 6 7
M  V30 7 2 7 8
M  V30 8 1 8 9
M  V30 9 2 9 10
M  V30 10 1 10 11
M  V30 11 2 6 11
M  V30 12 1 11 12
M  V30 13 1 4 12
M  V30 END BOND
M  V30 END CTAB
M  END
>  <Catalog ID>
Z56839706

>  <MW>
162.032

>  <MW (desalted)>
162.142

>  <ClogP>
2.445

>  <logS>
-2.61

>  <HBD>
1

>  <HBA>
2

>  <TPSA>
50.44

>  <RotBonds>
1

$$$$

  Mrv2205 11102315382D          

  0  0  0     0  0            999 V3000
M  V30 BEGIN CTAB
M  V30 COUNTS 12 13 0 0 0
M  V30 BEGIN ATOM
M  V30 1 C 0 -0 0 0
M  V30 2 C 1.3337 -0.77 0 0
M  V30 3 C 2.6674 0 0 0
M  V30 4 C 4.001 -0.77 0 0
M  V30 5 C 5.3347 0 0 0
M  V30 6 C 6.6684 -0.77 0 0
M  V30 7 C 6.6684 -2.31 0 0
M  V30 8 C 5.3347 -3.08 0 0
M  V30 9 C 4.001 -2.31 0 0
M  V30 10 N 2.6674 -3.08 0 0
M  V30 11 C 1.3337 -2.31 0 0
M  V30 12 O 0 -3.08 0 0
M  V30 END ATOM
M  V30 BEGIN BOND
M  V30 1 1 1 2
M  V30 2 2 2 3
M  V30 3 1 3 4
M  V30 4 1 4 5
M  V30 5 2 5 6
M  V30 6 1 6 7
M  V30 7 2 7 8
M  V30 8 1 8 9
M  V30 9 2 4 9
M  V30 10 1 9 10
M  V30 11 1 10 11
M  V30 12 1 2 11
M  V30 13 2 11 12
M  V30 END BOND
M  V30 END CTAB
M  END
>  <Catalog ID>
Z1198181962

>  <MW>
159.068

>  <MW (desalted)>
159.185

>  <ClogP>
1.311

>  <logS>
-2.89

>  <HBD>
1

>  <HBA>
1

>  <TPSA>
29.1

>  <RotBonds>
0

$$$$

  Mrv2205 11102315382D          

  0  0  0     0  0            999 V3000
M  V30 BEGIN CTAB
M  V30 COUNTS 14 15 0 0 0
M  V30 BEGIN ATOM
M  V30 1 O 2.6674 -0 0 0
M  V30 2 C 1.3337 -0.77 0 0
M  V30 3 O 0 0 0 0
M  V30 4 C 1.3337 -2.31 0 0
M  V30 5 C 2.5796 -3.2152 0 0
M  V30 6 N 2.1037 -4.6798 0 0
M  V30 7 N 0.5637 -4.6798 0 0
M  V30 8 C 0.0878 -3.2152 0 0
M  V30 9 C -0.3415 -5.9257 0 0
M  V30 10 C 0.2849 -7.3326 0 0
M  V30 11 C -0.6203 -8.5784 0 0
M  V30 12 C -2.1519 -8.4175 0 0
M  V30 13 C -2.7783 -7.0106 0 0
M  V30 14 C -1.8731 -5.7647 0 0
M  V30 END ATOM
M  V30 BEGIN BOND
M  V30 1 1 1 2
M  V30 2 2 2 3
M  V30 3 1 2 4
M  V30 4 1 4 5
M  V30 5 2 5 6
M  V30 6 1 6 7
M  V30 7 1 7 8
M  V30 8 2 4 8
M  V30 9 1 7 9
M  V30 10 1 9 10
M  V30 11 2 10 11
M  V30 12 1 11 12
M  V30 13 2 12 13
M  V30 14 1 13 14
M  V30 15 2 9 14
M  V30 END BOND
M  V30 END CTAB
M  END
>  <Catalog ID>
Z99601182

>  <MW>
188.059

>  <MW (desalted)>
188.183

>  <ClogP>
2.2

>  <logS>
-1.54

>  <HBD>
1

>  <HBA>
3

>  <TPSA>
55.12

>  <RotBonds>
2

$$$$

  Mrv2205 11102315382D          

  0  0  0     0  0            999 V3000
M  V30 BEGIN CTAB
M  V30 COUNTS 8 8 0 0 0
M  V30 BEGIN ATOM
M  V30 1 C 1.3337 3.85 0 0
M  V30 2 C 1.3337 2.31 0 0
M  V30 3 C 2.6674 1.54 0 0
M  V30 4 C 2.6674 -0 0 0
M  V30 5 C 1.3337 -0.77 0 0
M  V30 6 C 0 0 0 0
M  V30 7 O -1.3337 -0.77 0 0
M  V30 8 C 0 1.54 0 0
M  V30 END ATOM
M  V30 BEGIN BOND
M  V30 1 1 1 2
M  V30 2 1 2 3
M  V30 3 2 3 4
M  V30 4 1 4 5
M  V30 5 2 5 6
M  V30 6 1 6 7
M  V30 7 1 6 8
M  V30 8 2 2 8
M  V30 END BOND
M  V30 END CTAB
M  END
>  <Catalog ID>
Z104473820

>  <MW>
108.058

>  <MW (desalted)>
108.138

>  <ClogP>
1.974

>  <logS>
-1.46

>  <HBD>
1

>  <HBA>
1

>  <TPSA>
20.23

>  <RotBonds>
0

$$$$

  Mrv2205 11102315382D          

  0  0  0     0  0            999 V3000
M  V30 BEGIN CTAB
M  V30 COUNTS 10 10 0 0 0
M  V30 BEGIN ATOM
M  V30 1 N 0 4.62 0 0
M  V30 2 C 1.3337 3.85 0 0
M  V30 3 O 2.6674 4.62 0 0
M  V30 4 C 1.3337 2.31 0 0
M  V30 5 C 2.6674 1.54 0 0
M  V30 6 C 2.6674 -0 0 0
M  V30 7 C 1.3337 -0.77 0 0
M  V30 8 C 0 0 0 0
M  V30 9 N -1.3337 -0.77 0 0
M  V30 10 C 0 1.54 0 0
M  V30 END ATOM
M  V30 BEGIN BOND
M  V30 1 1 1 2
M  V30 2 2 2 3
M  V30 3 1 2 4
M  V30 4 1 4 5
M  V30 5 2 5 6
M  V30 6 1 6 7
M  V30 7 2 7 8
M  V30 8 1 8 9
M  V30 9 1 8 10
M  V30 10 2 4 10
M  V30 END BOND
M  V30 END CTAB
M  END
>  <Catalog ID>
Z118530082

>  <MW>
136.064

>  <MW (desalted)>
136.151

>  <ClogP>
-0.252

>  <logS>
-1.39

>  <HBD>
2

>  <HBA>
2

>  <TPSA>
69.11

>  <RotBonds>
1

$$$$

  Mrv2205 11102315382D          

  0  0  0     0  0            999 V3000
M  V30 BEGIN CTAB
M  V30 COUNTS 10 11 0 0 0
M  V30 BEGIN ATOM
M  V30 1 N 6.1207 3.85 0 0
M  V30 2 C 6.1207 2.31 0 0
M  V30 3 C 7.4543 1.54 0 0
M  V30 4 C 7.4543 0 0 0
M  V30 5 C 6.1207 -0.77 0 0
M  V30 6 C 4.787 0 0 0
M  V30 7 C 3.3224 -0.4759 0 0
M  V30 8 N 2.4172 0.77 0 0
M  V30 9 N 3.3224 2.0159 0 0
M  V30 10 C 4.787 1.54 0 0
M  V30 END ATOM
M  V30 BEGIN BOND
M  V30 1 1 1 2
M  V30 2 1 2 3
M  V30 3 2 3 4
M  V30 4 1 4 5
M  V30 5 2 5 6
M  V30 6 1 6 7
M  V30 7 2 7 8
M  V30 8 1 8 9
M  V30 9 1 9 10
M  V30 10 2 2 10
M  V30 11 1 6 10
M  V30 END BOND
M  V30 END CTAB
M  END
>  <Catalog ID>
Z235348069

>  <MW>
133.064

>  <MW (desalted)>
133.151

>  <ClogP>
1.036

>  <logS>
-1.77

>  <HBD>
2

>  <HBA>
2

>  <TPSA>
54.7

>  <RotBonds>
0

$$$$

  Mrv2205 11102315382D          

  0  0  0     0  0            999 V3000
M  V30 BEGIN CTAB
M  V30 COUNTS 10 10 0 0 0
M  V30 BEGIN ATOM
M  V30 1 C 0 4.62 0 0
M  V30 2 O 1.3337 3.85 0 0
M  V30 3 C 1.3337 2.31 0 0
M  V30 4 C 2.6674 1.54 0 0
M  V30 5 C 2.6674 -0 0 0
M  V30 6 C 1.3337 -0.77 0 0
M  V30 7 N 1.3337 -2.31 0 0
M  V30 8 C 0 0 0 0
M  V30 9 C 0 1.54 0 0
M  V30 10 F -1.3337 2.31 0 0
M  V30 END ATOM
M  V30 BEGIN BOND
M  V30 1 1 1 2
M  V30 2 1 2 3
M  V30 3 1 3 4
M  V30 4 2 4 5
M  V30 5 1 5 6
M  V30 6 1 6 7
M  V30 7 2 6 8
M  V30 8 1 8 9
M  V30 9 2 3 9
M  V30 10 1 9 10
M  V30 END BOND
M  V30 END CTAB
M  END
>  <Catalog ID>
Z362635046

>  <MW>
141.059

>  <MW (desalted)>
141.143

>  <ClogP>
1.159

>  <logS>
-1.51

>  <HBD>
1

>  <HBA>
2

>  <TPSA>
35.25

>  <RotBonds>
1

$$$$

  Mrv2205 11102315382D          

  0  0  0     0  0            999 V3000
M  V30 BEGIN CTAB
M  V30 COUNTS 11 12 0 0 0
M  V30 BEGIN ATOM
M  V30 1 O 0 -3.08 0 0
M  V30 2 C 1.3337 -2.31 0 0
M  V30 3 C 1.3337 -0.77 0 0
M  V30 4 C 2.6674 0 0 0
M  V30 5 C 4.001 -0.77 0 0
M  V30 6 C 5.3347 0 0 0
M  V30 7 C 6.6684 -0.77 0 0
M  V30 8 C 6.6684 -2.31 0 0
M  V30 9 C 5.3347 -3.08 0 0
M  V30 10 C 4.001 -2.31 0 0
M  V30 11 N 2.6674 -3.08 0 0
M  V30 END ATOM
M  V30 BEGIN BOND
M  V30 1 2 1 2
M  V30 2 1 2 3
M  V30 3 2 3 4
M  V30 4 1 4 5
M  V30 5 1 5 6
M  V30 6 2 6 7
M  V30 7 1 7 8
M  V30 8 2 8 9
M  V30 9 1 9 10
M  V30 10 2 5 10
M  V30 11 1 10 11
M  V30 12 1 2 11
M  V30 END BOND
M  V30 END CTAB
M  END
>  <Catalog ID>
Z57473020

>  <MW>
145.053

>  <MW (desalted)>
145.158

>  <ClogP>
0.812

>  <logS>
-2.6

>  <HBD>
1

>  <HBA>
1

>  <TPSA>
29.1

>  <RotBonds>
0

$$$$

  Mrv2205 11102315382D          

  0  0  0     0  0            999 V3000
M  V30 BEGIN CTAB
M  V30 COUNTS 11 11 0 0 0
M  V30 BEGIN ATOM
M  V30 1 C 0 4.62 0 0
M  V30 2 O 1.3337 3.85 0 0
M  V30 3 C 1.3337 2.31 0 0
M  V30 4 C 2.6674 1.54 0 0
M  V30 5 C 2.6674 -0 0 0
M  V30 6 C 1.3337 -0.77 0 0
M  V30 7 C 0 0 0 0
M  V30 8 C 0 1.54 0 0
M  V30 9 C 1.3337 -2.31 0 0
M  V30 10 O 2.6674 -3.08 0 0
M  V30 11 O -0 -3.08 0 0
M  V30 END ATOM
M  V30 BEGIN BOND
M  V30 1 1 1 2
M  V30 2 1 2 3
M  V30 3 1 3 4
M  V30 4 2 4 5
M  V30 5 1 5 6
M  V30 6 2 6 7
M  V30 7 1 7 8
M  V30 8 2 3 8
M  V30 9 1 6 9
M  V30 10 2 9 10
M  V30 11 1 9 11
M  V30 END BOND
M  V30 END CTAB
M  END
>  <Catalog ID>
Z56931884

>  <MW>
152.047

>  <MW (desalted)>
152.147

>  <ClogP>
2.023

>  <logS>
-1.55

>  <HBD>
1

>  <HBA>
3

>  <TPSA>
46.53

>  <RotBonds>
2

$$$$

  Mrv2205 11102315382D          

  0  0  0     0  0            999 V3000
M  V30 BEGIN CTAB
M  V30 COUNTS 11 12 0 0 0
M  V30 BEGIN ATOM
M  V30 1 N 2.6674 -4.62 0 0
M  V30 2 C 2.6674 -3.08 0 0
M  V30 3 N 1.3337 -2.31 0 0
M  V30 4 C 1.3337 -0.77 0 0
M  V30 5 C 2.6674 0 0 0
M  V30 6 C 4.001 -0.77 0 0
M  V30 7 C 5.3347 0 0 0
M  V30 8 C 6.6684 -0.77 0 0
M  V30 9 C 6.6684 -2.31 0 0
M  V30 10 C 5.3347 -3.08 0 0
M  V30 11 C 4.001 -2.31 0 0
M  V30 END ATOM
M  V30 BEGIN BOND
M  V30 1 1 1 2
M  V30 2 1 2 3
M  V30 3 2 3 4
M  V30 4 1 4 5
M  V30 5 2 5 6
M  V30 6 1 6 7
M  V30 7 2 7 8
M  V30 8 1 8 9
M  V30 9 2 9 10
M  V30 10 1 10 11
M  V30 11 2 2 11
M  V30 12 1 6 11
M  V30 END BOND
M  V30 END CTAB
M  END
>  <Catalog ID>
Z1203162487

>  <MW>
144.069

>  <MW (desalted)>
144.173

>  <ClogP>
1.492

>  <logS>
-2.5

>  <HBD>
1

>  <HBA>
2

>  <TPSA>
38.91

>  <RotBonds>
0

$$$$

  Mrv2205 11102315382D          

  0  0  0     0  0            999 V3000
M  V30 BEGIN CTAB
M  V30 COUNTS 13 14 0 0 0
M  V30 BEGIN ATOM
M  V30 1 C 4.001 -0.77 0 0
M  V30 2 C 4.001 -2.31 0 0
M  V30 3 C 5.3347 -3.08 0 0
M  V30 4 C 5.3347 -4.62 0 0
M  V30 5 C 4.001 -5.39 0 0
M  V30 6 C 2.6674 -4.62 0 0
M  V30 7 C 2.6674 -3.08 0 0
M  V30 8 C 5.3347 0 0 0
M  V30 9 C 5.3347 1.54 0 0
M  V30 10 C 6.6684 2.31 0 0
M  V30 11 N 8.0021 1.54 0 0
M  V30 12 C 8.0021 0 0 0
M  V30 13 C 6.6684 -0.77 0 0
M  V30 END ATOM
M  V30 BEGIN BOND
M  V30 1 1 1 2
M  V30 2 1 2 3
M  V30 3 2 3 4
M  V30 4 1 4 5
M  V30 5 2 5 6
M  V30 6 1 6 7
M  V30 7 2 2 7
M  V30 8 1 1 8
M  V30 9 1 8 9
M  V30 10 2 9 10
M  V30 11 1 10 11
M  V30 12 2 11 12
M  V30 13 1 12 13
M  V30 14 2 8 13
M  V30 END BOND
M  V30 END CTAB
M  END
>  <Catalog ID>
Z104477464

>  <MW>
169.089

>  <MW (desalted)>
169.222

>  <ClogP>
2.712

>  <logS>
-2.21

>  <HBD>
0

>  <HBA>
1

>  <TPSA>
12.89

>  <RotBonds>
2

$$$$

  Mrv2205 11102315382D          

  0  0  0     0  0            999 V3000
M  V30 BEGIN CTAB
M  V30 COUNTS 18 20 0 0 0
M  V30 BEGIN ATOM
M  V30 1 O -0.3196 -1.3028 0 0
M  V30 2 C 1.2204 -1.3028 0 0
M  V30 3 N 2.1256 -0.0569 0 0
M  V30 4 C 1.6497 1.4077 0 0
M  V30 5 C 0.1434 1.7279 0 0
M  V30 6 C -0.8871 0.5834 0 0
M  V30 7 C -2.3934 0.9036 0 0
M  V30 8 C -2.8693 2.3682 0 0
M  V30 9 C -1.8389 3.5127 0 0
M  V30 10 C -0.3325 3.1925 0 0
M  V30 11 C 3.5902 -0.5328 0 0
M  V30 12 C 4.9239 0.2372 0 0
M  V30 13 C 6.2576 -0.5328 0 0
M  V30 14 C 6.2576 -2.0728 0 0
M  V30 15 C 4.9239 -2.8428 0 0
M  V30 16 C 3.5902 -2.0728 0 0
M  V30 17 C 2.1256 -2.5487 0 0
M  V30 18 O 1.6497 -4.0133 0 0
M  V30 END ATOM
M  V30 BEGIN BOND
M  V30 1 2 1 2
M  V30 2 1 2 3
M  V30 3 1 3 4
M  V30 4 1 4 5
M  V30 5 1 5 6
M  V30 6 2 6 7
M  V30 7 1 7 8
M  V30 8 2 8 9
M  V30 9 1 9 10
M  V30 10 2 5 10
M  V30 11 1 3 11
M  V30 12 1 11 12
M  V30 13 2 12 13
M  V30 14 1 13 14
M  V30 15 2 14 15
M  V30 16 1 15 16
M  V30 17 2 11 16
M  V30 18 1 16 17
M  V30 19 1 2 17
M  V30 20 2 17 18
M  V30 END BOND
M  V30 END CTAB
M  END
>  <Catalog ID>
Z56862402

>  <MW>
237.079

>  <MW (desalted)>
237.253

>  <ClogP>
2.332

>  <logS>
-4.29

>  <HBD>
0

>  <HBA>
2

>  <TPSA>
37.38

>  <RotBonds>
2

$$$$

  Mrv2205 11102315382D          

  0  0  0     0  0            999 V3000
M  V30 BEGIN CTAB
M  V30 COUNTS 8 8 0 0 0
M  V30 BEGIN ATOM
M  V30 1 O -0.2739 4.39 0 0
M  V30 2 C 1.0598 3.62 0 0
M  V30 3 O 2.3935 4.39 0 0
M  V30 4 C 1.0598 2.08 0 0
M  V30 5 C 2.3057 1.1748 0 0
M  V30 6 S 1.8298 -0.2898 0 0
M  V30 7 C 0.2898 -0.2898 0 0
M  V30 8 N -0.1861 1.1748 0 0
M  V30 END ATOM
M  V30 BEGIN BOND
M  V30 1 1 1 2
M  V30 2 2 2 3
M  V30 3 1 2 4
M  V30 4 2 4 5
M  V30 5 1 5 6
M  V30 6 1 6 7
M  V30 7 2 7 8
M  V30 8 1 4 8
M  V30 END BOND
M  V30 END CTAB
M  END
>  <Catalog ID>
Z800222638

>  <MW>
128.988

>  <MW (desalted)>
129.137

>  <ClogP>
0.831

>  <logS>
-0.85

>  <HBD>
1

>  <HBA>
3

>  <TPSA>
50.19

>  <RotBonds>
1

$$$$

  Mrv2205 11102315382D          

  0  0  0     0  0            999 V3000
M  V30 BEGIN CTAB
M  V30 COUNTS 11 12 0 0 0
M  V30 BEGIN ATOM
M  V30 1 C 0.5637 -4.6798 0 0
M  V30 2 C 0.0878 -3.2152 0 0
M  V30 3 N 1.3337 -2.31 0 0
M  V30 4 C 2.5796 -3.2152 0 0
M  V30 5 N 2.1037 -4.6798 0 0
M  V30 6 C 1.3337 -0.77 0 0
M  V30 7 C 0 0 0 0
M  V30 8 C 0 1.54 0 0
M  V30 9 C 1.3337 2.31 0 0
M  V30 10 C 2.6674 1.54 0 0
M  V30 11 C 2.6674 0 0 0
M  V30 END ATOM
M  V30 BEGIN BOND
M  V30 1 2 1 2
M  V30 2 1 2 3
M  V30 3 1 3 4
M  V30 4 2 4 5
M  V30 5 1 1 5
M  V30 6 1 3 6
M  V30 7 1 6 7
M  V30 8 2 7 8
M  V30 9 1 8 9
M  V30 10 2 9 10
M  V30 11 1 10 11
M  V30 12 2 6 11
M  V30 END BOND
M  V30 END CTAB
M  END
>  <Catalog ID>
Z440825046

>  <MW>
144.069

>  <MW (desalted)>
144.173

>  <ClogP>
2.08

>  <logS>
-1.53

>  <HBD>
0

>  <HBA>
1

>  <TPSA>
17.82

>  <RotBonds>
1

$$$$

  Mrv2205 11102315382D          

  0  0  0     0  0            999 V3000
M  V30 BEGIN CTAB
M  V30 COUNTS 13 14 0 0 0
M  V30 BEGIN ATOM
M  V30 1 C 7.5913 4.3828 0 0
M  V30 2 C 6.2576 3.6128 0 0
M  V30 3 C 6.2576 2.0728 0 0
M  V30 4 C 4.9239 1.3028 0 0
M  V30 5 C 3.5902 2.0728 0 0
M  V30 6 N 2.1256 1.5969 0 0
M  V30 7 C 1.2204 2.8428 0 0
M  V30 8 C 2.1256 4.0887 0 0
M  V30 9 C 3.5902 3.6128 0 0
M  V30 10 C 4.9239 4.3828 0 0
M  V30 11 C -0.3196 2.8428 0 0
M  V30 12 O -1.0896 1.5091 0 0
M  V30 13 O -1.0896 4.1765 0 0
M  V30 END ATOM
M  V30 BEGIN BOND
M  V30 1 1 1 2
M  V30 2 1 2 3
M  V30 3 2 3 4
M  V30 4 1 4 5
M  V30 5 1 5 6
M  V30 6 1 6 7
M  V30 7 2 7 8
M  V30 8 1 8 9
M  V30 9 2 5 9
M  V30 10 1 9 10
M  V30 11 2 2 10
M  V30 12 1 7 11
M  V30 13 2 11 12
M  V30 14 1 11 13
M  V30 END BOND
M  V30 END CTAB
M  END
>  <Catalog ID>
Z235352033

>  <MW>
175.063

>  <MW (desalted)>
175.184

>  <ClogP>
2.63

>  <logS>
-3.17

>  <HBD>
2

>  <HBA>
2

>  <TPSA>
53.09

>  <RotBonds>
1

$$$$

  Mrv2205 11102315382D          

  0  0  0     0  0            999 V3000
M  V30 BEGIN CTAB
M  V30 COUNTS 13 14 0 0 0
M  V30 BEGIN ATOM
M  V30 1 C 0.1434 -4.3335 0 0
M  V30 2 C 1.6497 -4.0133 0 0
M  V30 3 C 2.6802 -5.1578 0 0
M  V30 4 N 2.1256 -2.5487 0 0
M  V30 5 C 1.2204 -1.3028 0 0
M  V30 6 N -0.3196 -1.3028 0 0
M  V30 7 N 2.1256 -0.0569 0 0
M  V30 8 C 3.5902 -0.5328 0 0
M  V30 9 C 4.9239 0.2372 0 0
M  V30 10 C 6.2576 -0.5328 0 0
M  V30 11 C 6.2576 -2.0728 0 0
M  V30 12 C 4.9239 -2.8428 0 0
M  V30 13 C 3.5902 -2.0728 0 0
M  V30 END ATOM
M  V30 BEGIN BOND
M  V30 1 1 1 2
M  V30 2 1 2 3
M  V30 3 1 2 4
M  V30 4 1 4 5
M  V30 5 1 5 6
M  V30 6 2 5 7
M  V30 7 1 7 8
M  V30 8 1 8 9
M  V30 9 2 9 10
M  V30 10 1 10 11
M  V30 11 2 11 12
M  V30 12 1 12 13
M  V30 13 1 4 13
M  V30 14 2 8 13
M  V30 END BOND
M  V30 END CTAB
M  END
>  <Catalog ID>
Z367659362

>  <MW>
175.111

>  <MW (desalted)>
175.23

>  <ClogP>
2.134

>  <logS>
-2.12

>  <HBD>
1

>  <HBA>
2

>  <TPSA>
43.84

>  <RotBonds>
1

$$$$

  Mrv2205 11102315382D          

  0  0  0     0  0            999 V3000
M  V30 BEGIN CTAB
M  V30 COUNTS 11 11 0 0 0
M  V30 BEGIN ATOM
M  V30 1 C 1.3337 3.85 0 0
M  V30 2 C 1.3337 2.31 0 0
M  V30 3 C 2.6674 1.54 0 0
M  V30 4 C 2.6674 -0 0 0
M  V30 5 C 1.3337 -0.77 0 0
M  V30 6 C 0 0 0 0
M  V30 7 C 0 1.54 0 0
M  V30 8 S -1.3337 2.31 0 0
M  V30 9 O -2.6674 3.08 0 0
M  V30 10 O -0.5637 3.6437 0 0
M  V30 11 N -2.1037 0.9763 0 0
M  V30 END ATOM
M  V30 BEGIN BOND
M  V30 1 1 1 2
M  V30 2 1 2 3
M  V30 3 2 3 4
M  V30 4 1 4 5
M  V30 5 2 5 6
M  V30 6 1 6 7
M  V30 7 2 2 7
M  V30 8 1 7 8
M  V30 9 2 8 9
M  V30 10 2 8 10
M  V30 11 1 8 11
M  V30 END BOND
M  V30 END CTAB
M  END
>  <Catalog ID>
Z57902803

>  <MW>
171.035

>  <MW (desalted)>
171.217

>  <ClogP>
0.804

>  <logS>
-1.61

>  <HBD>
1

>  <HBA>
2

>  <TPSA>
60.16

>  <RotBonds>
1

$$$$

  Mrv2205 11102315382D          

  0  0  0     0  0            999 V3000
M  V30 BEGIN CTAB
M  V30 COUNTS 12 13 0 0 0
M  V30 BEGIN ATOM
M  V30 1 O 7.5913 5.9228 0 0
M  V30 2 C 7.5913 4.3828 0 0
M  V30 3 O 8.925 3.6128 0 0
M  V30 4 C 6.2576 3.6128 0 0
M  V30 5 C 6.2576 2.0728 0 0
M  V30 6 C 4.9239 1.3028 0 0
M  V30 7 C 3.5902 2.0728 0 0
M  V30 8 O 2.1256 1.5969 0 0
M  V30 9 C 1.2204 2.8428 0 0
M  V30 10 O 2.1256 4.0887 0 0
M  V30 11 C 3.5902 3.6128 0 0
M  V30 12 C 4.9239 4.3828 0 0
M  V30 END ATOM
M  V30 BEGIN BOND
M  V30 1 1 1 2
M  V30 2 2 2 3
M  V30 3 1 2 4
M  V30 4 1 4 5
M  V30 5 2 5 6
M  V30 6 1 6 7
M  V30 7 1 7 8
M  V30 8 1 8 9
M  V30 9 1 9 10
M  V30 10 1 10 11
M  V30 11 2 7 11
M  V30 12 1 11 12
M  V30 13 2 4 12
M  V30 END BOND
M  V30 END CTAB
M  END
>  <Catalog ID>
Z104476884

>  <MW>
166.027

>  <MW (desalted)>
166.131

>  <ClogP>
1.972

>  <logS>
-2.12

>  <HBD>
1

>  <HBA>
4

>  <TPSA>
55.76

>  <RotBonds>
1

$$$$

  Mrv2205 11102315382D          

  0  0  0     0  0            999 V3000
M  V30 BEGIN CTAB
M  V30 COUNTS 13 13 0 0 0
M  V30 BEGIN ATOM
M  V30 1 C 0 6.16 0 0
M  V30 2 C 0 4.62 0 0
M  V30 3 O 1.3337 3.85 0 0
M  V30 4 C 1.3337 2.31 0 0
M  V30 5 C 2.6674 1.54 0 0
M  V30 6 C 2.6674 -0 0 0
M  V30 7 C 1.3337 -0.77 0 0
M  V30 8 C 0 0 0 0
M  V30 9 C 0 1.54 0 0
M  V30 10 S 1.3337 -2.31 0 0
M  V30 11 O 1.3337 -3.85 0 0
M  V30 12 O -0.2063 -2.31 0 0
M  V30 13 N 2.8737 -2.31 0 0
M  V30 END ATOM
M  V30 BEGIN BOND
M  V30 1 1 1 2
M  V30 2 1 2 3
M  V30 3 1 3 4
M  V30 4 1 4 5
M  V30 5 2 5 6
M  V30 6 1 6 7
M  V30 7 2 7 8
M  V30 8 1 8 9
M  V30 9 2 4 9
M  V30 10 1 7 10
M  V30 11 2 10 11
M  V30 12 2 10 12
M  V30 13 1 10 13
M  V30 END BOND
M  V30 END CTAB
M  END
>  <Catalog ID>
Z45415565

>  <MW>
201.046

>  <MW (desalted)>
201.243

>  <ClogP>
1.078

>  <logS>
-1.709

>  <HBD>
1

>  <HBA>
3

>  <TPSA>
69.39

>  <RotBonds>
3

$$$$

  Mrv2205 11102315382D          

  0  0  0     0  0            999 V3000
M  V30 BEGIN CTAB
M  V30 COUNTS 9 9 0 0 0
M  V30 BEGIN ATOM
M  V30 1 N 1.3337 3.85 0 0
M  V30 2 C 1.3337 2.31 0 0
M  V30 3 C 2.6674 1.54 0 0
M  V30 4 C 2.6674 -0 0 0
M  V30 5 C 1.3337 -0.77 0 0
M  V30 6 C 0 0 0 0
M  V30 7 C 0 1.54 0 0
M  V30 8 C -1.3337 2.31 0 0
M  V30 9 O -2.6674 1.54 0 0
M  V30 END ATOM
M  V30 BEGIN BOND
M  V30 1 1 1 2
M  V30 2 1 2 3
M  V30 3 2 3 4
M  V30 4 1 4 5
M  V30 5 2 5 6
M  V30 6 1 6 7
M  V30 7 2 2 7
M  V30 8 1 7 8
M  V30 9 1 8 9
M  V30 END BOND
M  V30 END CTAB
M  END
>  <Catalog ID>
Z104495736

>  <MW>
123.068

>  <MW (desalted)>
123.152

>  <ClogP>
-0.173

>  <logS>
-0.74

>  <HBD>
2

>  <HBA>
2

>  <TPSA>
46.25

>  <RotBonds>
1

$$$$

  Mrv2205 11102315382D          

  0  0  0     0  0            999 V3000
M  V30 BEGIN CTAB
M  V30 COUNTS 11 12 0 0 0
M  V30 BEGIN ATOM
M  V30 1 O -0.8454 -1.8096 0 0
M  V30 2 C -0.0754 -0.4759 0 0
M  V30 3 O -0.8454 0.8578 0 0
M  V30 4 C 1.4646 -0.4759 0 0
M  V30 5 C 2.3698 0.77 0 0
M  V30 6 C 3.8344 0.2941 0 0
M  V30 7 C 5.2991 0.77 0 0
M  V30 8 C 6.2043 -0.4759 0 0
M  V30 9 S 5.2991 -1.7218 0 0
M  V30 10 C 3.8344 -1.2459 0 0
M  V30 11 N 2.3698 -1.7218 0 0
M  V30 END ATOM
M  V30 BEGIN BOND
M  V30 1 1 1 2
M  V30 2 2 2 3
M  V30 3 1 2 4
M  V30 4 2 4 5
M  V30 5 1 5 6
M  V30 6 1 6 7
M  V30 7 2 7 8
M  V30 8 1 8 9
M  V30 9 1 9 10
M  V30 10 2 6 10
M  V30 11 1 10 11
M  V30 12 1 4 11
M  V30 END BOND
M  V30 END CTAB
M  END
>  <Catalog ID>
Z235000792

>  <MW>
167.004

>  <MW (desalted)>
167.185

>  <ClogP>
1.882

>  <logS>
-2.87

>  <HBD>
2

>  <HBA>
2

>  <TPSA>
53.09

>  <RotBonds>
1

$$$$

  Mrv2205 11102315382D          

  0  0  0     0  0            999 V3000
M  V30 BEGIN CTAB
M  V30 COUNTS 13 14 0 0 0
M  V30 BEGIN ATOM
M  V30 1 N 3.8019 -0.885 0 0
M  V30 2 C 3.8019 -2.425 0 0
M  V30 3 N 5.0477 -3.3302 0 0
M  V30 4 C 4.5719 -4.7948 0 0
M  V30 5 C 3.0319 -4.7948 0 0
M  V30 6 C 2.1267 -6.0407 0 0
M  V30 7 C 0.5951 -5.8797 0 0
M  V30 8 C -0.3101 -7.1256 0 0
M  V30 9 C -1.8417 -6.9646 0 0
M  V30 10 C -2.468 -5.5578 0 0
M  V30 11 C -1.5628 -4.3119 0 0
M  V30 12 C -0.0313 -4.4729 0 0
M  V30 13 S 2.556 -3.3302 0 0
M  V30 END ATOM
M  V30 BEGIN BOND
M  V30 1 1 1 2
M  V30 2 2 2 3
M  V30 3 1 3 4
M  V30 4 2 4 5
M  V30 5 1 5 6
M  V30 6 1 6 7
M  V30 7 1 7 8
M  V30 8 2 8 9
M  V30 9 1 9 10
M  V30 10 2 10 11
M  V30 11 1 11 12
M  V30 12 2 7 12
M  V30 13 1 5 13
M  V30 14 1 2 13
M  V30 END BOND
M  V30 END CTAB
M  END
>  <Catalog ID>
Z57040472

>  <MW>
190.056

>  <MW (desalted)>
190.265

>  <ClogP>
2.296

>  <logS>
-2.84

>  <HBD>
1

>  <HBA>
2

>  <TPSA>
38.91

>  <RotBonds>
2

$$$$

  Mrv2205 11102315382D          

  0  0  0     0  0            999 V3000
M  V30 BEGIN CTAB
M  V30 COUNTS 15 16 0 0 0
M  V30 BEGIN ATOM
M  V30 1 O -3.3996 -3.9702 0 0
M  V30 2 C -2.6296 -2.6365 0 0
M  V30 3 O -3.3996 -1.3028 0 0
M  V30 4 C -1.0896 -2.6365 0 0
M  V30 5 C -0.3196 -1.3028 0 0
M  V30 6 C 1.2204 -1.3028 0 0
M  V30 7 N 2.1256 -0.0569 0 0
M  V30 8 C 3.5902 -0.5328 0 0
M  V30 9 C 4.9239 0.2372 0 0
M  V30 10 C 6.2576 -0.5328 0 0
M  V30 11 Cl 7.5913 0.2372 0 0
M  V30 12 C 6.2576 -2.0728 0 0
M  V30 13 C 4.9239 -2.8428 0 0
M  V30 14 C 3.5902 -2.0728 0 0
M  V30 15 S 2.1256 -2.5487 0 0
M  V30 END ATOM
M  V30 BEGIN BOND
M  V30 1 1 1 2
M  V30 2 2 2 3
M  V30 3 1 2 4
M  V30 4 1 4 5
M  V30 5 1 5 6
M  V30 6 2 6 7
M  V30 7 1 7 8
M  V30 8 1 8 9
M  V30 9 2 9 10
M  V30 10 1 10 11
M  V30 11 1 10 12
M  V30 12 2 12 13
M  V30 13 1 13 14
M  V30 14 2 8 14
M  V30 15 1 14 15
M  V30 16 1 6 15
M  V30 END BOND
M  V30 END CTAB
M  END
>  <Catalog ID>
Z228584328

>  <MW>
240.996

>  <MW (desalted)>
241.694

>  <ClogP>
2.581

>  <logS>
-2.41

>  <HBD>
1

>  <HBA>
3

>  <TPSA>
50.19

>  <RotBonds>
3

$$$$

  Mrv2205 11102315382D          

  0  0  0     0  0            999 V3000
M  V30 BEGIN CTAB
M  V30 COUNTS 16 17 0 0 0
M  V30 BEGIN ATOM
M  V30 1 C 0 0 0 0
M  V30 2 C 1.3337 -0.77 0 0
M  V30 3 O 2.6674 0 0 0
M  V30 4 N 1.3337 -2.31 0 0
M  V30 5 C 2.6674 -3.08 0 0
M  V30 6 C 2.6674 -4.62 0 0
M  V30 7 N 1.3337 -5.39 0 0
M  V30 8 C 0 -4.62 0 0
M  V30 9 C 0 -3.08 0 0
M  V30 10 C 1.3337 -6.93 0 0
M  V30 11 C 2.6674 -7.7 0 0
M  V30 12 C 2.6674 -9.24 0 0
M  V30 13 C 1.3337 -10.01 0 0
M  V30 14 O 1.3337 -11.55 0 0
M  V30 15 C 0 -9.24 0 0
M  V30 16 C 0 -7.7 0 0
M  V30 END ATOM
M  V30 BEGIN BOND
M  V30 1 1 1 2
M  V30 2 2 2 3
M  V30 3 1 2 4
M  V30 4 1 4 5
M  V30 5 1 5 6
M  V30 6 1 6 7
M  V30 7 1 7 8
M  V30 8 1 8 9
M  V30 9 1 4 9
M  V30 10 1 7 10
M  V30 11 1 10 11
M  V30 12 2 11 12
M  V30 13 1 12 13
M  V30 14 1 13 14
M  V30 15 2 13 15
M  V30 16 1 15 16
M  V30 17 2 10 16
M  V30 END BOND
M  V30 END CTAB
M  END
>  <Catalog ID>
Z28269747

>  <MW>
220.121

>  <MW (desalted)>
220.268

>  <ClogP>
0.512

>  <logS>
-1.677

>  <HBD>
1

>  <HBA>
3

>  <TPSA>
43.78

>  <RotBonds>
1

$$$$

  Mrv2205 11102315382D          

  0  0  0     0  0            999 V3000
M  V30 BEGIN CTAB
M  V30 COUNTS 11 11 0 0 0
M  V30 BEGIN ATOM
M  V30 1 O 0 4.62 0 0
M  V30 2 C 1.3337 3.85 0 0
M  V30 3 O 2.6674 4.62 0 0
M  V30 4 C 1.3337 2.31 0 0
M  V30 5 C 2.6674 1.54 0 0
M  V30 6 C 2.6674 -0 0 0
M  V30 7 C 1.3337 -0.77 0 0
M  V30 8 O 1.3337 -2.31 0 0
M  V30 9 C 0 0 0 0
M  V30 10 F -1.3337 -0.77 0 0
M  V30 11 C 0 1.54 0 0
M  V30 END ATOM
M  V30 BEGIN BOND
M  V30 1 1 1 2
M  V30 2 2 2 3
M  V30 3 1 2 4
M  V30 4 1 4 5
M  V30 5 2 5 6
M  V30 6 1 6 7
M  V30 7 1 7 8
M  V30 8 2 7 9
M  V30 9 1 9 10
M  V30 10 1 9 11
M  V30 11 2 4 11
M  V30 END BOND
M  V30 END CTAB
M  END
>  <Catalog ID>
Z57073754

>  <MW>
156.022

>  <MW (desalted)>
156.111

>  <ClogP>
1.633

>  <logS>
-1.41

>  <HBD>
2

>  <HBA>
3

>  <TPSA>
57.53

>  <RotBonds>
1

$$$$

  Mrv2205 11102315382D          

  0  0  0     0  0            999 V3000
M  V30 BEGIN CTAB
M  V30 COUNTS 11 12 0 0 0
M  V30 BEGIN ATOM
M  V30 1 O 2.6674 -4.62 0 0
M  V30 2 C 2.6674 -3.08 0 0
M  V30 3 C 1.3337 -2.31 0 0
M  V30 4 C 1.3337 -0.77 0 0
M  V30 5 C 2.6674 0 0 0
M  V30 6 C 4.001 -0.77 0 0
M  V30 7 C 5.3347 0 0 0
M  V30 8 C 6.6684 -0.77 0 0
M  V30 9 C 6.6684 -2.31 0 0
M  V30 10 N 5.3347 -3.08 0 0
M  V30 11 C 4.001 -2.31 0 0
M  V30 END ATOM
M  V30 BEGIN BOND
M  V30 1 1 1 2
M  V30 2 1 2 3
M  V30 3 2 3 4
M  V30 4 1 4 5
M  V30 5 2 5 6
M  V30 6 1 6 7
M  V30 7 2 7 8
M  V30 8 1 8 9
M  V30 9 2 9 10
M  V30 10 1 10 11
M  V30 11 2 2 11
M  V30 12 1 6 11
M  V30 END BOND
M  V30 END CTAB
M  END
>  <Catalog ID>
Z56926518

>  <MW>
145.053

>  <MW (desalted)>
145.158

>  <ClogP>
2.077

>  <logS>
-1.62

>  <HBD>
1

>  <HBA>
2

>  <TPSA>
33.12

>  <RotBonds>
0

$$$$

  Mrv2205 11102315382D          

  0  0  0     0  0            999 V3000
M  V30 BEGIN CTAB
M  V30 COUNTS 12 12 0 0 0
M  V30 BEGIN ATOM
M  V30 1 C 1.3337 5.39 0 0
M  V30 2 C 1.3337 3.85 0 0
M  V30 3 C -0.2063 3.85 0 0
M  V30 4 C 2.8737 3.85 0 0
M  V30 5 C 1.3337 2.31 0 0
M  V30 6 C 2.6674 1.54 0 0
M  V30 7 C 2.6674 -0 0 0
M  V30 8 C 1.3337 -0.77 0 0
M  V30 9 O 1.3337 -2.31 0 0
M  V30 10 C 0 0 0 0
M  V30 11 O -1.3337 -0.77 0 0
M  V30 12 C 0 1.54 0 0
M  V30 END ATOM
M  V30 BEGIN BOND
M  V30 1 1 1 2
M  V30 2 1 2 3
M  V30 3 1 2 4
M  V30 4 1 2 5
M  V30 5 1 5 6
M  V30 6 2 6 7
M  V30 7 1 7 8
M  V30 8 1 8 9
M  V30 9 2 8 10
M  V30 10 1 10 11
M  V30 11 1 10 12
M  V30 12 2 5 12
M  V30 END BOND
M  V30 END CTAB
M  END
>  <Catalog ID>
Z104476062

>  <MW>
166.099

>  <MW (desalted)>
166.217

>  <ClogP>
2.704

>  <logS>
-2.22

>  <HBD>
2

>  <HBA>
2

>  <TPSA>
40.46

>  <RotBonds>
1

$$$$

  Mrv2205 11102315382D          

  0  0  0     0  0            999 V3000
M  V30 BEGIN CTAB
M  V30 COUNTS 9 9 0 0 0
M  V30 BEGIN ATOM
M  V30 1 O 1.3337 3.85 0 0
M  V30 2 C 1.3337 2.31 0 0
M  V30 3 C 2.6674 1.54 0 0
M  V30 4 C 2.6674 -0 0 0
M  V30 5 C 1.3337 -0.77 0 0
M  V30 6 C 0 0 0 0
M  V30 7 C 0 1.54 0 0
M  V30 8 C -1.3337 2.31 0 0
M  V30 9 N -2.6674 3.08 0 0
M  V30 END ATOM
M  V30 BEGIN BOND
M  V30 1 1 1 2
M  V30 2 1 2 3
M  V30 3 2 3 4
M  V30 4 1 4 5
M  V30 5 2 5 6
M  V30 6 1 6 7
M  V30 7 2 2 7
M  V30 8 1 7 8
M  V30 9 3 8 9
M  V30 END BOND
M  V30 END CTAB
M  END
>  <Catalog ID>
Z104477750

>  <MW>
119.037

>  <MW (desalted)>
119.121

>  <ClogP>
1.597

>  <logS>
-1.27

>  <HBD>
1

>  <HBA>
2

>  <TPSA>
44.02

>  <RotBonds>
0

$$$$

  Mrv2205 11102315382D          

  0  0  0     0  0            999 V3000
M  V30 BEGIN CTAB
M  V30 COUNTS 9 9 0 0 0
M  V30 BEGIN ATOM
M  V30 1 C 1.0598 3.62 0 0
M  V30 2 C 1.0598 2.08 0 0
M  V30 3 N 2.3057 1.1748 0 0
M  V30 4 C 1.8298 -0.2898 0 0
M  V30 5 C 0.2898 -0.2898 0 0
M  V30 6 S -0.1861 1.1748 0 0
M  V30 7 C -0.6154 -1.5357 0 0
M  V30 8 O 0.011 -2.9426 0 0
M  V30 9 O -2.1469 -1.3747 0 0
M  V30 END ATOM
M  V30 BEGIN BOND
M  V30 1 1 1 2
M  V30 2 2 2 3
M  V30 3 1 3 4
M  V30 4 2 4 5
M  V30 5 1 5 6
M  V30 6 1 2 6
M  V30 7 1 5 7
M  V30 8 2 7 8
M  V30 9 1 7 9
M  V30 END BOND
M  V30 END CTAB
M  END
>  <Catalog ID>
Z385373334

>  <MW>
143.004

>  <MW (desalted)>
143.164

>  <ClogP>
1.13

>  <logS>
-0.56

>  <HBD>
1

>  <HBA>
3

>  <TPSA>
50.19

>  <RotBonds>
1

$$$$

  Mrv2205 11102315382D          

  0  0  0     0  0            999 V3000
M  V30 BEGIN CTAB
M  V30 COUNTS 9 9 0 0 0
M  V30 BEGIN ATOM
M  V30 1 C 1.3337 3.85 0 0
M  V30 2 C 1.3337 2.31 0 0
M  V30 3 C 2.6674 1.54 0 0
M  V30 4 N 2.6674 -0 0 0
M  V30 5 C 1.3337 -0.77 0 0
M  V30 6 C 1.3337 -2.31 0 0
M  V30 7 N 0 0 0 0
M  V30 8 C 0 1.54 0 0
M  V30 9 N -1.3337 2.31 0 0
M  V30 END ATOM
M  V30 BEGIN BOND
M  V30 1 1 1 2
M  V30 2 1 2 3
M  V30 3 2 3 4
M  V30 4 1 4 5
M  V30 5 1 5 6
M  V30 6 2 5 7
M  V30 7 1 7 8
M  V30 8 2 2 8
M  V30 9 1 8 9
M  V30 END BOND
M  V30 END CTAB
M  END
>  <Catalog ID>
Z1198261676

>  <MW>
123.08

>  <MW (desalted)>
123.156

>  <ClogP>
0.624

>  <logS>
-0.49

>  <HBD>
1

>  <HBA>
3

>  <TPSA>
51.8

>  <RotBonds>
0

$$$$

  Mrv2205 11102315382D          

  0  0  0     0  0            999 V3000
M  V30 BEGIN CTAB
M  V30 COUNTS 11 12 0 0 0
M  V30 BEGIN ATOM
M  V30 1 C -1.0896 -2.6365 0 0
M  V30 2 N -0.3196 -1.3028 0 0
M  V30 3 C 1.2204 -1.3028 0 0
M  V30 4 N 2.1256 -0.0569 0 0
M  V30 5 C 3.5902 -0.5328 0 0
M  V30 6 C 4.9239 0.2372 0 0
M  V30 7 C 6.2576 -0.5328 0 0
M  V30 8 C 6.2576 -2.0728 0 0
M  V30 9 C 4.9239 -2.8428 0 0
M  V30 10 C 3.5902 -2.0728 0 0
M  V30 11 N 2.1256 -2.5487 0 0
M  V30 END ATOM
M  V30 BEGIN BOND
M  V30 1 1 1 2
M  V30 2 1 2 3
M  V30 3 2 3 4
M  V30 4 1 4 5
M  V30 5 1 5 6
M  V30 6 2 6 7
M  V30 7 1 7 8
M  V30 8 2 8 9
M  V30 9 1 9 10
M  V30 10 2 5 10
M  V30 11 1 10 11
M  V30 12 1 3 11
M  V30 END BOND
M  V30 END CTAB
M  END
>  <Catalog ID>
Z56767838

>  <MW>
147.08

>  <MW (desalted)>
147.177

>  <ClogP>
2.036

>  <logS>
-2.41

>  <HBD>
2

>  <HBA>
2

>  <TPSA>
40.71

>  <RotBonds>
1

$$$$

  Mrv2205 11102315382D          

  0  0  0     0  0            999 V3000
M  V30 BEGIN CTAB
M  V30 COUNTS 13 14 0 0 0
M  V30 BEGIN ATOM
M  V30 1 O -1.0896 0.0309 0 0
M  V30 2 C -0.3196 -1.3028 0 0
M  V30 3 O -1.0896 -2.6365 0 0
M  V30 4 C 1.2204 -1.3028 0 0
M  V30 5 C 2.1256 -0.0569 0 0
M  V30 6 C 3.5902 -0.5328 0 0
M  V30 7 C 4.9239 0.2372 0 0
M  V30 8 C 6.2576 -0.5328 0 0
M  V30 9 C 6.2576 -2.0728 0 0
M  V30 10 Cl 7.5913 -2.8428 0 0
M  V30 11 C 4.9239 -2.8428 0 0
M  V30 12 C 3.5902 -2.0728 0 0
M  V30 13 N 2.1256 -2.5487 0 0
M  V30 END ATOM
M  V30 BEGIN BOND
M  V30 1 1 1 2
M  V30 2 2 2 3
M  V30 3 1 2 4
M  V30 4 2 4 5
M  V30 5 1 5 6
M  V30 6 1 6 7
M  V30 7 2 7 8
M  V30 8 1 8 9
M  V30 9 1 9 10
M  V30 10 2 9 11
M  V30 11 1 11 12
M  V30 12 2 6 12
M  V30 13 1 12 13
M  V30 14 1 4 13
M  V30 END BOND
M  V30 END CTAB
M  END
>  <Catalog ID>
Z119990438

>  <MW>
195.009

>  <MW (desalted)>
195.602

>  <ClogP>
2.925

>  <logS>
-3.42

>  <HBD>
2

>  <HBA>
2

>  <TPSA>
53.09

>  <RotBonds>
1

$$$$

  Mrv2205 11102315382D          

  0  0  0     0  0            999 V3000
M  V30 BEGIN CTAB
M  V30 COUNTS 13 13 0 0 0
M  V30 BEGIN ATOM
M  V30 1 O 0 -4.62 0 0
M  V30 2 C 1.3337 -5.39 0 0
M  V30 3 C 2.6674 -4.62 0 0
M  V30 4 N 4.001 -5.39 0 0
M  V30 5 C 5.3347 -4.62 0 0
M  V30 6 O 5.3347 -3.08 0 0
M  V30 7 C 6.6684 -5.39 0 0
M  V30 8 C 8.0021 -4.62 0 0
M  V30 9 C 9.3358 -5.39 0 0
M  V30 10 C 9.3358 -6.93 0 0
M  V30 11 Cl 10.6694 -7.7 0 0
M  V30 12 C 8.0021 -7.7 0 0
M  V30 13 C 6.6684 -6.93 0 0
M  V30 END ATOM
M  V30 BEGIN BOND
M  V30 1 1 1 2
M  V30 2 1 2 3
M  V30 3 1 3 4
M  V30 4 1 4 5
M  V30 5 2 5 6
M  V30 6 1 5 7
M  V30 7 1 7 8
M  V30 8 2 8 9
M  V30 9 1 9 10
M  V30 10 1 10 11
M  V30 11 2 10 12
M  V30 12 1 12 13
M  V30 13 2 7 13
M  V30 END BOND
M  V30 END CTAB
M  END
>  <Catalog ID>
Z31725206

>  <MW>
199.04

>  <MW (desalted)>
199.634

>  <ClogP>
1.215

>  <logS>
-2.25

>  <HBD>
2

>  <HBA>
2

>  <TPSA>
49.33

>  <RotBonds>
3

$$$$

  Mrv2205 11102315382D          

  0  0  0     0  0            999 V3000
M  V30 BEGIN CTAB
M  V30 COUNTS 10 10 0 0 0
M  V30 BEGIN ATOM
M  V30 1 O -1.6075 6.7 0 0
M  V30 2 C -0.2739 5.93 0 0
M  V30 3 O 1.0598 6.7 0 0
M  V30 4 C -0.2739 4.39 0 0
M  V30 5 C 1.0598 3.62 0 0
M  V30 6 C 1.0598 2.08 0 0
M  V30 7 C 2.3057 1.1748 0 0
M  V30 8 C 1.8298 -0.2898 0 0
M  V30 9 C 0.2898 -0.2898 0 0
M  V30 10 C -0.1861 1.1748 0 0
M  V30 END ATOM
M  V30 BEGIN BOND
M  V30 1 1 1 2
M  V30 2 2 2 3
M  V30 3 1 2 4
M  V30 4 1 4 5
M  V30 5 1 5 6
M  V30 6 1 6 7
M  V30 7 1 7 8
M  V30 8 1 8 9
M  V30 9 1 9 10
M  V30 10 1 6 10
M  V30 END BOND
M  V30 END CTAB
M  END
>  <Catalog ID>
Z104478044

>  <MW>
142.099

>  <MW (desalted)>
142.196

>  <ClogP>
2.426

>  <logS>
-2.27

>  <HBD>
1

>  <HBA>
2

>  <TPSA>
37.3

>  <RotBonds>
3

$$$$

  Mrv2205 11102315382D          

  0  0  0     0  0            999 V3000
M  V30 BEGIN CTAB
M  V30 COUNTS 11 12 0 0 0
M  V30 BEGIN ATOM
M  V30 1 C 7.5913 5.9228 0 0
M  V30 2 O 7.5913 4.3828 0 0
M  V30 3 C 6.2576 3.6128 0 0
M  V30 4 C 6.2576 2.0728 0 0
M  V30 5 C 4.9239 1.3028 0 0
M  V30 6 C 3.5902 2.0728 0 0
M  V30 7 N 2.1256 1.5969 0 0
M  V30 8 C 1.2204 2.8428 0 0
M  V30 9 C 2.1256 4.0887 0 0
M  V30 10 C 3.5902 3.6128 0 0
M  V30 11 C 4.9239 4.3828 0 0
M  V30 END ATOM
M  V30 BEGIN BOND
M  V30 1 1 1 2
M  V30 2 1 2 3
M  V30 3 1 3 4
M  V30 4 2 4 5
M  V30 5 1 5 6
M  V30 6 1 6 7
M  V30 7 1 7 8
M  V30 8 2 8 9
M  V30 9 1 9 10
M  V30 10 2 6 10
M  V30 11 1 10 11
M  V30 12 2 3 11
M  V30 END BOND
M  V30 END CTAB
M  END
>  <Catalog ID>
Z104507276

>  <MW>
147.068

>  <MW (desalted)>
147.174

>  <ClogP>
2.153

>  <logS>
-2.29

>  <HBD>
1

>  <HBA>
1

>  <TPSA>
25.02

>  <RotBonds>
1

$$$$

  Mrv2205 11102315382D          

  0  0  0     0  0            999 V3000
M  V30 BEGIN CTAB
M  V30 COUNTS 12 12 0 0 0
M  V30 BEGIN ATOM
M  V30 1 O -1.3337 6.93 0 0
M  V30 2 C 0 6.16 0 0
M  V30 3 O 1.3337 6.93 0 0
M  V30 4 C 0 4.62 0 0
M  V30 5 C 1.3337 3.85 0 0
M  V30 6 C 1.3337 2.31 0 0
M  V30 7 C 2.6674 1.54 0 0
M  V30 8 C 2.6674 -0 0 0
M  V30 9 C 1.3337 -0.77 0 0
M  V30 10 O 1.3337 -2.31 0 0
M  V30 11 C 0 0 0 0
M  V30 12 C 0 1.54 0 0
M  V30 END ATOM
M  V30 BEGIN BOND
M  V30 1 1 1 2
M  V30 2 2 2 3
M  V30 3 1 2 4
M  V30 4 1 4 5
M  V30 5 1 5 6
M  V30 6 1 6 7
M  V30 7 2 7 8
M  V30 8 1 8 9
M  V30 9 1 9 10
M  V30 10 2 9 11
M  V30 11 1 11 12
M  V30 12 2 6 12
M  V30 END BOND
M  V30 END CTAB
M  END
>  <Catalog ID>
Z317038012

>  <MW>
166.063

>  <MW (desalted)>
166.174

>  <ClogP>
1.236

>  <logS>
-0.95

>  <HBD>
2

>  <HBA>
3

>  <TPSA>
57.53

>  <RotBonds>
3

$$$$

  Mrv2205 11102315382D          

  0  0  0     0  0            999 V3000
M  V30 BEGIN CTAB
M  V30 COUNTS 13 14 0 0 0
M  V30 BEGIN ATOM
M  V30 1 N -0.3266 -1.1493 0 0
M  V30 2 C 1.1798 -0.8291 0 0
M  V30 3 C 2.2102 -1.9735 0 0
M  V30 4 C 3.4561 -2.8787 0 0
M  V30 5 C 2.9802 -4.3433 0 0
M  V30 6 C 1.4402 -4.3433 0 0
M  V30 7 C 0.9644 -2.8787 0 0
M  V30 8 C 3.2407 -0.8291 0 0
M  V30 9 C 2.7648 0.6356 0 0
M  V30 10 C 3.7953 1.78 0 0
M  V30 11 C 5.3016 1.4598 0 0
M  V30 12 C 5.7775 -0.0048 0 0
M  V30 13 C 4.7471 -1.1493 0 0
M  V30 END ATOM
M  V30 BEGIN BOND
M  V30 1 1 1 2
M  V30 2 1 2 3
M  V30 3 1 3 4
M  V30 4 1 4 5
M  V30 5 1 5 6
M  V30 6 1 6 7
M  V30 7 1 3 7
M  V30 8 1 3 8
M  V30 9 1 8 9
M  V30 10 2 9 10
M  V30 11 1 10 11
M  V30 12 2 11 12
M  V30 13 1 12 13
M  V30 14 2 8 13
M  V30 END BOND
M  V30 END CTAB
M  END
>  <Catalog ID>
Z199451530

>  <MW>
175.136

>  <MW (desalted)>
175.27

>  <ClogP>
2.985

>  <logS>
-2.33

>  <HBD>
1

>  <HBA>
1

>  <TPSA>
26.02

>  <RotBonds>
2

$$$$

  Mrv2205 11102315382D          

  0  0  0     0  0            999 V3000
M  V30 BEGIN CTAB
M  V30 COUNTS 9 9 0 0 0
M  V30 BEGIN ATOM
M  V30 1 C 1.3337 3.85 0 0
M  V30 2 C 1.3337 2.31 0 0
M  V30 3 C 2.6674 1.54 0 0
M  V30 4 C 2.6674 -0 0 0
M  V30 5 C 4.001 -0.77 0 0
M  V30 6 N 1.3337 -0.77 0 0
M  V30 7 C 0 0 0 0
M  V30 8 N -1.3337 -0.77 0 0
M  V30 9 N 0 1.54 0 0
M  V30 END ATOM
M  V30 BEGIN BOND
M  V30 1 1 1 2
M  V30 2 1 2 3
M  V30 3 2 3 4
M  V30 4 1 4 5
M  V30 5 1 4 6
M  V30 6 2 6 7
M  V30 7 1 7 8
M  V30 8 1 7 9
M  V30 9 2 2 9
M  V30 END BOND
M  V30 END CTAB
M  END
>  <Catalog ID>
Z104501152

>  <MW>
123.08

>  <MW (desalted)>
123.156

>  <ClogP>
0.674

>  <logS>
-0.86

>  <HBD>
1

>  <HBA>
3

>  <TPSA>
51.8

>  <RotBonds>
0

$$$$

  Mrv2205 11102315382D          

  0  0  0     0  0            999 V3000
M  V30 BEGIN CTAB
M  V30 COUNTS 10 10 0 0 0
M  V30 BEGIN ATOM
M  V30 1 N -0.2739 5.93 0 0
M  V30 2 C -0.2739 4.39 0 0
M  V30 3 O -1.6075 3.62 0 0
M  V30 4 C 1.0598 3.62 0 0
M  V30 5 N 1.0598 2.08 0 0
M  V30 6 C 2.3057 1.1748 0 0
M  V30 7 C 1.8298 -0.2898 0 0
M  V30 8 C 0.2898 -0.2898 0 0
M  V30 9 C -0.1861 1.1748 0 0
M  V30 10 O -1.6507 1.6507 0 0
M  V30 END ATOM
M  V30 BEGIN BOND
M  V30 1 1 1 2
M  V30 2 2 2 3
M  V30 3 1 2 4
M  V30 4 1 4 5
M  V30 5 1 5 6
M  V30 6 1 6 7
M  V30 7 1 7 8
M  V30 8 1 8 9
M  V30 9 1 5 9
M  V30 10 2 9 10
M  V30 END BOND
M  V30 END CTAB
M  END
>  <Catalog ID>
Z56865289

>  <MW>
142.074

>  <MW (desalted)>
142.156

>  <ClogP>
-1.182

>  <logS>
-0.15

>  <HBD>
1

>  <HBA>
2

>  <TPSA>
63.4

>  <RotBonds>
2

$$$$

  Mrv2205 11102315382D          

  0  0  0     0  0            999 V3000
M  V30 BEGIN CTAB
M  V30 COUNTS 10 11 0 0 0
M  V30 BEGIN ATOM
M  V30 1 O 7.5913 4.3828 0 0
M  V30 2 C 6.2576 3.6128 0 0
M  V30 3 C 6.2576 2.0728 0 0
M  V30 4 C 4.9239 1.3028 0 0
M  V30 5 C 3.5902 2.0728 0 0
M  V30 6 N 2.1256 1.5969 0 0
M  V30 7 C 1.2204 2.8428 0 0
M  V30 8 C 2.1256 4.0887 0 0
M  V30 9 C 3.5902 3.6128 0 0
M  V30 10 C 4.9239 4.3828 0 0
M  V30 END ATOM
M  V30 BEGIN BOND
M  V30 1 1 1 2
M  V30 2 1 2 3
M  V30 3 2 3 4
M  V30 4 1 4 5
M  V30 5 1 5 6
M  V30 6 1 6 7
M  V30 7 2 7 8
M  V30 8 1 8 9
M  V30 9 2 5 9
M  V30 10 1 9 10
M  V30 11 2 2 10
M  V30 END BOND
M  V30 END CTAB
M  END
>  <Catalog ID>
Z1203162319

>  <MW>
133.053

>  <MW (desalted)>
133.147

>  <ClogP>
1.465

>  <logS>
-1.85

>  <HBD>
2

>  <HBA>
1

>  <TPSA>
36.02

>  <RotBonds>
0

$$$$

  Mrv2205 11102315382D          

  0  0  0     0  0            999 V3000
M  V30 BEGIN CTAB
M  V30 COUNTS 11 11 0 0 0
M  V30 BEGIN ATOM
M  V30 1 N 1.3337 3.85 0 0
M  V30 2 C 1.3337 2.31 0 0
M  V30 3 C 2.6674 1.54 0 0
M  V30 4 C 2.6674 -0 0 0
M  V30 5 C 1.3337 -0.77 0 0
M  V30 6 C 0 0 0 0
M  V30 7 C 0 1.54 0 0
M  V30 8 S 1.3337 -2.31 0 0
M  V30 9 O 1.3337 -3.85 0 0
M  V30 10 O -0.2063 -2.31 0 0
M  V30 11 N 2.8737 -2.31 0 0
M  V30 END ATOM
M  V30 BEGIN BOND
M  V30 1 1 1 2
M  V30 2 1 2 3
M  V30 3 2 3 4
M  V30 4 1 4 5
M  V30 5 2 5 6
M  V30 6 1 6 7
M  V30 7 2 2 7
M  V30 8 1 5 8
M  V30 9 2 8 9
M  V30 10 2 8 10
M  V30 11 1 8 11
M  V30 END BOND
M  V30 END CTAB
M  END
>  <Catalog ID>
Z56851240

>  <MW>
172.031

>  <MW (desalted)>
172.205

>  <ClogP>
-0.572

>  <logS>
-1.16

>  <HBD>
2

>  <HBA>
3

>  <TPSA>
86.18

>  <RotBonds>
1

$$$$

  Mrv2205 11102315382D          

  0  0  0     0  0            999 V3000
M  V30 BEGIN CTAB
M  V30 COUNTS 11 12 0 0 0
M  V30 BEGIN ATOM
M  V30 1 N -0.3196 -1.3028 0 0
M  V30 2 C 1.2204 -1.3028 0 0
M  V30 3 N 2.1256 -0.0569 0 0
M  V30 4 C 3.5902 -0.5328 0 0
M  V30 5 C 4.9239 0.2372 0 0
M  V30 6 Cl 4.9239 1.7772 0 0
M  V30 7 C 6.2576 -0.5328 0 0
M  V30 8 C 6.2576 -2.0728 0 0
M  V30 9 C 4.9239 -2.8428 0 0
M  V30 10 C 3.5902 -2.0728 0 0
M  V30 11 S 2.1256 -2.5487 0 0
M  V30 END ATOM
M  V30 BEGIN BOND
M  V30 1 1 1 2
M  V30 2 2 2 3
M  V30 3 1 3 4
M  V30 4 1 4 5
M  V30 5 1 5 6
M  V30 6 2 5 7
M  V30 7 1 7 8
M  V30 8 2 8 9
M  V30 9 1 9 10
M  V30 10 2 4 10
M  V30 11 1 10 11
M  V30 12 1 2 11
M  V30 END BOND
M  V30 END CTAB
M  END
>  <Catalog ID>
Z57607000

>  <MW>
183.986

>  <MW (desalted)>
184.646

>  <ClogP>
2.545

>  <logS>
-3.282

>  <HBD>
1

>  <HBA>
2

>  <TPSA>
38.91

>  <RotBonds>
0

$$$$

  Mrv2205 11102315382D          

  0  0  0     0  0            999 V3000
M  V30 BEGIN CTAB
M  V30 COUNTS 13 13 0 0 0
M  V30 BEGIN ATOM
M  V30 1 C 0 6.16 0 0
M  V30 2 C 0 4.62 0 0
M  V30 3 C 1.3337 3.85 0 0
M  V30 4 C 1.3337 2.31 0 0
M  V30 5 C 2.6674 1.54 0 0
M  V30 6 C 2.6674 -0 0 0
M  V30 7 C 1.3337 -0.77 0 0
M  V30 8 C 0 0 0 0
M  V30 9 C 0 1.54 0 0
M  V30 10 S 1.3337 -2.31 0 0
M  V30 11 O 1.3337 -3.85 0 0
M  V30 12 O -0.2063 -2.31 0 0
M  V30 13 N 2.8737 -2.31 0 0
M  V30 END ATOM
M  V30 BEGIN BOND
M  V30 1 1 1 2
M  V30 2 1 2 3
M  V30 3 1 3 4
M  V30 4 1 4 5
M  V30 5 2 5 6
M  V30 6 1 6 7
M  V30 7 2 7 8
M  V30 8 1 8 9
M  V30 9 2 4 9
M  V30 10 1 7 10
M  V30 11 2 10 11
M  V30 12 2 10 12
M  V30 13 1 10 13
M  V30 END BOND
M  V30 END CTAB
M  END
>  <Catalog ID>
Z45415607

>  <MW>
199.067

>  <MW (desalted)>
199.27

>  <ClogP>
1.862

>  <logS>
-2.89

>  <HBD>
1

>  <HBA>
2

>  <TPSA>
60.16

>  <RotBonds>
3

$$$$

  Mrv2205 11102315382D          

  0  0  0     0  0            999 V3000
M  V30 BEGIN CTAB
M  V30 COUNTS 12 13 0 0 0
M  V30 BEGIN ATOM
M  V30 1 Br 0 -3.08 0 0
M  V30 2 C 1.3337 -2.31 0 0
M  V30 3 C 1.3337 -0.77 0 0
M  V30 4 C 2.6674 0 0 0
M  V30 5 C 4.001 -0.77 0 0
M  V30 6 N 5.3347 0 0 0
M  V30 7 C 6.6684 -0.77 0 0
M  V30 8 O 8.0021 -0 0 0
M  V30 9 C 6.6684 -2.31 0 0
M  V30 10 N 5.3347 -3.08 0 0
M  V30 11 C 4.001 -2.31 0 0
M  V30 12 C 2.6674 -3.08 0 0
M  V30 END ATOM
M  V30 BEGIN BOND
M  V30 1 1 1 2
M  V30 2 1 2 3
M  V30 3 2 3 4
M  V30 4 1 4 5
M  V30 5 1 5 6
M  V30 6 1 6 7
M  V30 7 2 7 8
M  V30 8 1 7 9
M  V30 9 1 9 10
M  V30 10 1 10 11
M  V30 11 2 5 11
M  V30 12 1 11 12
M  V30 13 2 2 12
M  V30 END BOND
M  V30 END CTAB
M  END
>  <Catalog ID>
Z1269175847

>  <MW>
225.974

>  <MW (desalted)>
227.058

>  <ClogP>
1.672

>  <logS>
-2.37

>  <HBD>
2

>  <HBA>
2

>  <TPSA>
41.13

>  <RotBonds>
0

$$$$

  Mrv2205 11102315382D          

  0  0  0     0  0            999 V3000
M  V30 BEGIN CTAB
M  V30 COUNTS 9 9 0 0 0
M  V30 BEGIN ATOM
M  V30 1 O 0 4.62 0 0
M  V30 2 C 1.3337 3.85 0 0
M  V30 3 C 1.3337 2.31 0 0
M  V30 4 C 2.6674 1.54 0 0
M  V30 5 C 2.6674 -0 0 0
M  V30 6 C 1.3337 -0.77 0 0
M  V30 7 Br 1.3337 -2.31 0 0
M  V30 8 C 0 0 0 0
M  V30 9 C 0 1.54 0 0
M  V30 END ATOM
M  V30 BEGIN BOND
M  V30 1 1 1 2
M  V30 2 1 2 3
M  V30 3 1 3 4
M  V30 4 2 4 5
M  V30 5 1 5 6
M  V30 6 1 6 7
M  V30 7 2 6 8
M  V30 8 1 8 9
M  V30 9 2 3 9
M  V30 END BOND
M  V30 END CTAB
M  END
>  <Catalog ID>
Z335244742

>  <MW>
185.968

>  <MW (desalted)>
187.034

>  <ClogP>
1.967

>  <logS>
-2.07

>  <HBD>
1

>  <HBA>
1

>  <TPSA>
20.23

>  <RotBonds>
1

$$$$

  Mrv2205 11102315382D          

  0  0  0     0  0            999 V3000
M  V30 BEGIN CTAB
M  V30 COUNTS 10 10 0 0 0
M  V30 BEGIN ATOM
M  V30 1 O 1.3337 3.85 0 0
M  V30 2 C 1.3337 2.31 0 0
M  V30 3 C 2.6674 1.54 0 0
M  V30 4 C 2.6674 -0 0 0
M  V30 5 C 1.3337 -0.77 0 0
M  V30 6 C 1.3337 -2.31 0 0
M  V30 7 N 1.3337 -3.85 0 0
M  V30 8 C 0 0 0 0
M  V30 9 F -1.3337 -0.77 0 0
M  V30 10 C 0 1.54 0 0
M  V30 END ATOM
M  V30 BEGIN BOND
M  V30 1 1 1 2
M  V30 2 1 2 3
M  V30 3 2 3 4
M  V30 4 1 4 5
M  V30 5 1 5 6
M  V30 6 3 6 7
M  V30 7 2 5 8
M  V30 8 1 8 9
M  V30 9 1 8 10
M  V30 10 2 2 10
M  V30 END BOND
M  V30 END CTAB
M  END
>  <Catalog ID>
Z1157728598

>  <MW>
137.028

>  <MW (desalted)>
137.111

>  <ClogP>
1.844

>  <logS>
-1.57

>  <HBD>
1

>  <HBA>
2

>  <TPSA>
44.02

>  <RotBonds>
0

$$$$

  Mrv2205 11102315382D          

  0  0  0     0  0            999 V3000
M  V30 BEGIN CTAB
M  V30 COUNTS 12 12 0 0 0
M  V30 BEGIN ATOM
M  V30 1 C 0 4.62 0 0
M  V30 2 C 1.3337 3.85 0 0
M  V30 3 C 1.3337 2.31 0 0
M  V30 4 C 2.6674 1.54 0 0
M  V30 5 C 2.6674 -0 0 0
M  V30 6 C 1.3337 -0.77 0 0
M  V30 7 C 0 0 0 0
M  V30 8 C 0 1.54 0 0
M  V30 9 S 1.3337 -2.31 0 0
M  V30 10 O 1.3337 -3.85 0 0
M  V30 11 O -0.2063 -2.31 0 0
M  V30 12 N 2.8737 -2.31 0 0
M  V30 END ATOM
M  V30 BEGIN BOND
M  V30 1 1 1 2
M  V30 2 1 2 3
M  V30 3 1 3 4
M  V30 4 2 4 5
M  V30 5 1 5 6
M  V30 6 2 6 7
M  V30 7 1 7 8
M  V30 8 2 3 8
M  V30 9 1 6 9
M  V30 10 2 9 10
M  V30 11 2 9 11
M  V30 12 1 9 12
M  V30 END BOND
M  V30 END CTAB
M  END
>  <Catalog ID>
Z57902253

>  <MW>
185.051

>  <MW (desalted)>
185.243

>  <ClogP>
1.333

>  <logS>
-2.37

>  <HBD>
1

>  <HBA>
2

>  <TPSA>
60.16

>  <RotBonds>
2

$$$$

  Mrv2205 11102315382D          

  0  0  0     0  0            999 V3000
M  V30 BEGIN CTAB
M  V30 COUNTS 12 12 0 0 0
M  V30 BEGIN ATOM
M  V30 1 C -1.6075 6.7 0 0
M  V30 2 C -0.2739 5.93 0 0
M  V30 3 O -0.2739 4.39 0 0
M  V30 4 C 1.0598 3.62 0 0
M  V30 5 O 2.3935 4.39 0 0
M  V30 6 C 1.0598 2.08 0 0
M  V30 7 C 2.3057 1.1748 0 0
M  V30 8 C 3.7703 1.6507 0 0
M  V30 9 N 1.8298 -0.2898 0 0
M  V30 10 N 0.2898 -0.2898 0 0
M  V30 11 C -0.1861 1.1748 0 0
M  V30 12 C -1.6507 1.6507 0 0
M  V30 END ATOM
M  V30 BEGIN BOND
M  V30 1 1 1 2
M  V30 2 1 2 3
M  V30 3 1 3 4
M  V30 4 2 4 5
M  V30 5 1 4 6
M  V30 6 1 6 7
M  V30 7 1 7 8
M  V30 8 2 7 9
M  V30 9 1 9 10
M  V30 10 1 10 11
M  V30 11 2 6 11
M  V30 12 1 11 12
M  V30 END BOND
M  V30 END CTAB
M  END
>  <Catalog ID>
Z1201619441

>  <MW>
168.09

>  <MW (desalted)>
168.193

>  <ClogP>
1.685

>  <logS>
-1.19

>  <HBD>
1

>  <HBA>
2

>  <TPSA>
54.98

>  <RotBonds>
3

$$$$

  Mrv2205 11102315382D          

  0  0  0     0  0            999 V3000
M  V30 BEGIN CTAB
M  V30 COUNTS 13 15 0 0 0
M  V30 BEGIN ATOM
M  V30 1 O 0.5044 0.3665 0 0
M  V30 2 C 1.7503 1.2717 0 0
M  V30 3 C 1.5893 2.8032 0 0
M  V30 4 C 2.8352 3.7084 0 0
M  V30 5 C 4.2421 3.082 0 0
M  V30 6 C 5.9709 3.7084 0 0
M  V30 7 C 7.2168 2.8032 0 0
M  V30 8 C 7.0558 1.2717 0 0
M  V30 9 C 5.6489 0.6453 0 0
M  V30 10 C 5.1731 -0.8193 0 0
M  V30 11 C 3.6331 -0.8193 0 0
M  V30 12 N 3.1572 0.6453 0 0
M  V30 13 C 4.4031 1.5505 0 0
M  V30 END ATOM
M  V30 BEGIN BOND
M  V30 1 2 1 2
M  V30 2 1 2 3
M  V30 3 1 3 4
M  V30 4 1 4 5
M  V30 5 1 5 6
M  V30 6 2 6 7
M  V30 7 1 7 8
M  V30 8 2 8 9
M  V30 9 1 9 10
M  V30 10 1 10 11
M  V30 11 1 11 12
M  V30 12 1 2 12
M  V30 13 1 12 13
M  V30 14 1 9 13
M  V30 15 2 5 13
M  V30 END BOND
M  V30 END CTAB
M  END
>  <Catalog ID>
Z1198154439

>  <MW>
173.084

>  <MW (desalted)>
173.211

>  <ClogP>
1.497

>  <logS>
-2.024

>  <HBD>
0

>  <HBA>
1

>  <TPSA>
20.31

>  <RotBonds>
0

$$$$

  Mrv2205 11102315382D          

  0  0  0     0  0            999 V3000
M  V30 BEGIN CTAB
M  V30 COUNTS 10 11 0 0 0
M  V30 BEGIN ATOM
M  V30 1 N -0.3196 -1.3028 0 0
M  V30 2 C 1.2204 -1.3028 0 0
M  V30 3 N 2.1256 -0.0569 0 0
M  V30 4 C 3.5902 -0.5328 0 0
M  V30 5 C 4.9239 0.2372 0 0
M  V30 6 C 6.2576 -0.5328 0 0
M  V30 7 C 6.2576 -2.0728 0 0
M  V30 8 C 4.9239 -2.8428 0 0
M  V30 9 C 3.5902 -2.0728 0 0
M  V30 10 S 2.1256 -2.5487 0 0
M  V30 END ATOM
M  V30 BEGIN BOND
M  V30 1 1 1 2
M  V30 2 2 2 3
M  V30 3 1 3 4
M  V30 4 1 4 5
M  V30 5 2 5 6
M  V30 6 1 6 7
M  V30 7 2 7 8
M  V30 8 1 8 9
M  V30 9 2 4 9
M  V30 10 1 9 10
M  V30 11 1 2 10
M  V30 END BOND
M  V30 END CTAB
M  END
>  <Catalog ID>
Z56912586

>  <MW>
150.025

>  <MW (desalted)>
150.201

>  <ClogP>
1.823

>  <logS>
-2.51

>  <HBD>
1

>  <HBA>
2

>  <TPSA>
38.91

>  <RotBonds>
0

$$$$

  Mrv2205 11102315382D          

  0  0  0     0  0            999 V3000
M  V30 BEGIN CTAB
M  V30 COUNTS 11 12 0 0 0
M  V30 BEGIN ATOM
M  V30 1 O 2.6674 -4.62 0 0
M  V30 2 C 2.6674 -3.08 0 0
M  V30 3 N 1.3337 -2.31 0 0
M  V30 4 C 1.3337 -0.77 0 0
M  V30 5 C 2.6674 0 0 0
M  V30 6 C 4.001 -0.77 0 0
M  V30 7 C 5.3347 0 0 0
M  V30 8 C 6.6684 -0.77 0 0
M  V30 9 C 6.6684 -2.31 0 0
M  V30 10 C 5.3347 -3.08 0 0
M  V30 11 C 4.001 -2.31 0 0
M  V30 END ATOM
M  V30 BEGIN BOND
M  V30 1 2 1 2
M  V30 2 1 2 3
M  V30 3 1 3 4
M  V30 4 2 4 5
M  V30 5 1 5 6
M  V30 6 1 6 7
M  V30 7 2 7 8
M  V30 8 1 8 9
M  V30 9 2 9 10
M  V30 10 1 10 11
M  V30 11 1 2 11
M  V30 12 2 6 11
M  V30 END BOND
M  V30 END CTAB
M  END
>  <Catalog ID>
Z56960237

>  <MW>
145.053

>  <MW (desalted)>
145.158

>  <ClogP>
0.812

>  <logS>
-2.71

>  <HBD>
1

>  <HBA>
1

>  <TPSA>
29.1

>  <RotBonds>
0

$$$$

  Mrv2205 11102315382D          

  0  0  0     0  0            999 V3000
M  V30 BEGIN CTAB
M  V30 COUNTS 11 11 0 0 0
M  V30 BEGIN ATOM
M  V30 1 N 1.3337 3.85 0 0
M  V30 2 C 1.3337 2.31 0 0
M  V30 3 C 2.6674 1.54 0 0
M  V30 4 F 4.001 2.31 0 0
M  V30 5 C 2.6674 -0 0 0
M  V30 6 C 1.3337 -0.77 0 0
M  V30 7 C 0 0 0 0
M  V30 8 C 0 1.54 0 0
M  V30 9 C -1.3337 2.31 0 0
M  V30 10 O -2.6674 1.54 0 0
M  V30 11 O -1.3337 3.85 0 0
M  V30 END ATOM
M  V30 BEGIN BOND
M  V30 1 1 1 2
M  V30 2 1 2 3
M  V30 3 1 3 4
M  V30 4 2 3 5
M  V30 5 1 5 6
M  V30 6 2 6 7
M  V30 7 1 7 8
M  V30 8 2 2 8
M  V30 9 1 8 9
M  V30 10 2 9 10
M  V30 11 1 9 11
M  V30 END BOND
M  V30 END CTAB
M  END
>  <Catalog ID>
Z362758748

>  <MW>
155.038

>  <MW (desalted)>
155.126

>  <ClogP>
1.398

>  <logS>
-1.63

>  <HBD>
2

>  <HBA>
3

>  <TPSA>
63.32

>  <RotBonds>
1

$$$$

  Mrv2205 11102315382D          

  0  0  0     0  0            999 V3000
M  V30 BEGIN CTAB
M  V30 COUNTS 12 13 0 0 0
M  V30 BEGIN ATOM
M  V30 1 O 1.3337 12.63 0 0
M  V30 2 C 1.3337 11.09 0 0
M  V30 3 C 2.6674 10.32 0 0
M  V30 4 C 2.6674 8.78 0 0
M  V30 5 C 1.3337 8.01 0 0
M  V30 6 C 0 8.78 0 0
M  V30 7 C 0 10.32 0 0
M  V30 8 N 1.3337 6.47 0 0
M  V30 9 C 2.5796 5.5648 0 0
M  V30 10 C 2.1037 4.1002 0 0
M  V30 11 N 0.5637 4.1002 0 0
M  V30 12 C 0.0878 5.5648 0 0
M  V30 END ATOM
M  V30 BEGIN BOND
M  V30 1 1 1 2
M  V30 2 1 2 3
M  V30 3 2 3 4
M  V30 4 1 4 5
M  V30 5 2 5 6
M  V30 6 1 6 7
M  V30 7 2 2 7
M  V30 8 1 5 8
M  V30 9 1 8 9
M  V30 10 2 9 10
M  V30 11 1 10 11
M  V30 12 2 11 12
M  V30 13 1 8 12
M  V30 END BOND
M  V30 END CTAB
M  END
>  <Catalog ID>
Z56969320

>  <MW>
160.064

>  <MW (desalted)>
160.173

>  <ClogP>
1.734

>  <logS>
-1.14

>  <HBD>
1

>  <HBA>
2

>  <TPSA>
38.05

>  <RotBonds>
1

$$$$

  Mrv2205 11102315382D          

  0  0  0     0  0            999 V3000
M  V30 BEGIN CTAB
M  V30 COUNTS 12 13 0 0 0
M  V30 BEGIN ATOM
M  V30 1 N -1.8974 10.5737 0 0
M  V30 2 C -0.5637 9.8037 0 0
M  V30 3 C 0.77 10.5737 0 0
M  V30 4 C 2.1037 9.8037 0 0
M  V30 5 N 2.1037 8.2637 0 0
M  V30 6 C 0.77 7.4937 0 0
M  V30 7 C -0.5637 8.2637 0 0
M  V30 8 C 3.4374 7.4937 0 0
M  V30 9 O 4.771 8.2637 0 0
M  V30 10 C 3.4374 5.9537 0 0
M  V30 11 C 4.2074 4.62 0 0
M  V30 12 C 2.6674 4.62 0 0
M  V30 END ATOM
M  V30 BEGIN BOND
M  V30 1 1 1 2
M  V30 2 1 2 3
M  V30 3 1 3 4
M  V30 4 1 4 5
M  V30 5 1 5 6
M  V30 6 1 6 7
M  V30 7 1 2 7
M  V30 8 1 5 8
M  V30 9 2 8 9
M  V30 10 1 8 10
M  V30 11 1 10 11
M  V30 12 1 11 12
M  V30 13 1 10 12
M  V30 END BOND
M  V30 END CTAB
M  END
>  <Catalog ID>
Z239097510

>  <MW>
168.126

>  <MW (desalted)>
168.236

>  <ClogP>
-1.422

>  <logS>
-0.8

>  <HBD>
1

>  <HBA>
2

>  <TPSA>
46.33

>  <RotBonds>
1

$$$$

  Mrv2205 11102315382D          

  0  0  0     0  0            999 V3000
M  V30 BEGIN CTAB
M  V30 COUNTS 12 12 0 0 0
M  V30 BEGIN ATOM
M  V30 1 O 2.6674 4.62 0 0
M  V30 2 C 1.3337 3.85 0 0
M  V30 3 O 0 4.62 0 0
M  V30 4 C 1.3337 2.31 0 0
M  V30 5 C 2.6674 1.54 0 0
M  V30 6 C 2.6674 -0 0 0
M  V30 7 C 1.3337 -0.77 0 0
M  V30 8 C 0 0 0 0
M  V30 9 N 0 1.54 0 0
M  V30 10 C -1.3337 -0.77 0 0
M  V30 11 O -1.3337 -2.31 0 0
M  V30 12 O -2.6674 0 0 0
M  V30 END ATOM
M  V30 BEGIN BOND
M  V30 1 1 1 2
M  V30 2 2 2 3
M  V30 3 1 2 4
M  V30 4 1 4 5
M  V30 5 2 5 6
M  V30 6 1 6 7
M  V30 7 2 7 8
M  V30 8 1 8 9
M  V30 9 2 4 9
M  V30 10 1 8 10
M  V30 11 2 10 11
M  V30 12 1 10 12
M  V30 END BOND
M  V30 END CTAB
M  END
>  <Catalog ID>
Z57202012

>  <MW>
167.022

>  <MW (desalted)>
167.119

>  <ClogP>
1.078

>  <logS>
-1.04

>  <HBD>
2

>  <HBA>
5

>  <TPSA>
87.49

>  <RotBonds>
2

$$$$

  Mrv2205 11102315382D          

  0  0  0     0  0            999 V3000
M  V30 BEGIN CTAB
M  V30 COUNTS 15 16 0 0 0
M  V30 BEGIN ATOM
M  V30 1 F 4.001 -0.77 0 0
M  V30 2 C 4.001 -2.31 0 0
M  V30 3 C 5.3347 -3.08 0 0
M  V30 4 C 5.3347 -4.62 0 0
M  V30 5 C 4.001 -5.39 0 0
M  V30 6 C 2.6674 -4.62 0 0
M  V30 7 C 2.6674 -3.08 0 0
M  V30 8 C 4.001 -6.93 0 0
M  V30 9 O 5.3347 -7.7 0 0
M  V30 10 C 2.6674 -7.7 0 0
M  V30 11 C 2.6674 -9.24 0 0
M  V30 12 C 1.3337 -10.01 0 0
M  V30 13 N -0 -9.24 0 0
M  V30 14 C 0 -7.7 0 0
M  V30 15 C 1.3337 -6.93 0 0
M  V30 END ATOM
M  V30 BEGIN BOND
M  V30 1 1 1 2
M  V30 2 1 2 3
M  V30 3 2 3 4
M  V30 4 1 4 5
M  V30 5 2 5 6
M  V30 6 1 6 7
M  V30 7 2 2 7
M  V30 8 1 5 8
M  V30 9 2 8 9
M  V30 10 1 8 10
M  V30 11 1 10 11
M  V30 12 2 11 12
M  V30 13 1 12 13
M  V30 14 2 13 14
M  V30 15 1 14 15
M  V30 16 2 10 15
M  V30 END BOND
M  V30 END CTAB
M  END
>  <Catalog ID>
Z385412938

>  <MW>
201.059

>  <MW (desalted)>
201.196

>  <ClogP>
2.248

>  <logS>
-2.91

>  <HBD>
0

>  <HBA>
2

>  <TPSA>
29.96

>  <RotBonds>
2

$$$$

  Mrv2205 11102315382D          

  0  0  0     0  0            999 V3000
M  V30 BEGIN CTAB
M  V30 COUNTS 9 9 0 0 0
M  V30 BEGIN ATOM
M  V30 1 C 1.0598 3.62 0 0
M  V30 2 C 1.0598 2.08 0 0
M  V30 3 N 2.3057 1.1748 0 0
M  V30 4 C 1.8298 -0.2898 0 0
M  V30 5 S 0.2898 -0.2898 0 0
M  V30 6 C -0.1861 1.1748 0 0
M  V30 7 C -1.6507 1.6507 0 0
M  V30 8 C -1.9709 3.157 0 0
M  V30 9 O -3.4355 3.6329 0 0
M  V30 END ATOM
M  V30 BEGIN BOND
M  V30 1 1 1 2
M  V30 2 1 2 3
M  V30 3 2 3 4
M  V30 4 1 4 5
M  V30 5 1 5 6
M  V30 6 2 2 6
M  V30 7 1 6 7
M  V30 8 1 7 8
M  V30 9 1 8 9
M  V30 END BOND
M  V30 END CTAB
M  END
>  <Catalog ID>
Z104477768

>  <MW>
143.04

>  <MW (desalted)>
143.207

>  <ClogP>
0.126

>  <logS>
-0.5

>  <HBD>
1

>  <HBA>
2

>  <TPSA>
33.12

>  <RotBonds>
2

$$$$

  Mrv2205 11102315382D          

  0  0  0     0  0            999 V3000
M  V30 BEGIN CTAB
M  V30 COUNTS 11 12 0 0 0
M  V30 BEGIN ATOM
M  V30 1 N -0.3196 -1.3028 0 0
M  V30 2 C 1.2204 -1.3028 0 0
M  V30 3 N 2.1256 -0.0569 0 0
M  V30 4 C 3.5902 -0.5328 0 0
M  V30 5 C 4.9239 0.2372 0 0
M  V30 6 C 6.2576 -0.5328 0 0
M  V30 7 C 6.2576 -2.0728 0 0
M  V30 8 Cl 7.5913 -2.8428 0 0
M  V30 9 C 4.9239 -2.8428 0 0
M  V30 10 C 3.5902 -2.0728 0 0
M  V30 11 S 2.1256 -2.5487 0 0
M  V30 END ATOM
M  V30 BEGIN BOND
M  V30 1 1 1 2
M  V30 2 2 2 3
M  V30 3 1 3 4
M  V30 4 1 4 5
M  V30 5 2 5 6
M  V30 6 1 6 7
M  V30 7 1 7 8
M  V30 8 2 7 9
M  V30 9 1 9 10
M  V30 10 2 4 10
M  V30 11 1 10 11
M  V30 12 1 2 11
M  V30 END BOND
M  V30 END CTAB
M  END
>  <Catalog ID>
Z56896352

>  <MW>
183.986

>  <MW (desalted)>
184.646

>  <ClogP>
2.545

>  <logS>
-3.28

>  <HBD>
1

>  <HBA>
2

>  <TPSA>
38.91

>  <RotBonds>
0

$$$$

  Mrv2205 11102315382D          

  0  0  0     0  0            999 V3000
M  V30 BEGIN CTAB
M  V30 COUNTS 16 18 0 0 0
M  V30 BEGIN ATOM
M  V30 1 C 7.5913 4.3828 0 0
M  V30 2 N 7.5913 5.9228 0 0
M  V30 3 C 8.925 6.6928 0 0
M  V30 4 C 9.0859 8.2244 0 0
M  V30 5 C 10.5923 8.5446 0 0
M  V30 6 C 11.3623 7.2109 0 0
M  V30 7 C 10.3318 6.0665 0 0
M  V30 8 C 6.2576 3.6128 0 0
M  V30 9 C 6.2576 2.0728 0 0
M  V30 10 C 4.9239 1.3028 0 0
M  V30 11 C 3.5902 2.0728 0 0
M  V30 12 O 2.1256 1.5969 0 0
M  V30 13 C 1.2204 2.8428 0 0
M  V30 14 O 2.1256 4.0887 0 0
M  V30 15 C 3.5902 3.6128 0 0
M  V30 16 C 4.9239 4.3828 0 0
M  V30 END ATOM
M  V30 BEGIN BOND
M  V30 1 1 1 2
M  V30 2 1 2 3
M  V30 3 1 3 4
M  V30 4 1 4 5
M  V30 5 1 5 6
M  V30 6 1 6 7
M  V30 7 1 3 7
M  V30 8 1 1 8
M  V30 9 1 8 9
M  V30 10 2 9 10
M  V30 11 1 10 11
M  V30 12 1 11 12
M  V30 13 1 12 13
M  V30 14 1 13 14
M  V30 15 1 14 15
M  V30 16 2 11 15
M  V30 17 1 15 16
M  V30 18 2 8 16
M  V30 END BOND
M  V30 END CTAB
M  END
>  <Catalog ID>
Z57326449

>  <MW>
219.126

>  <MW (desalted)>
219.28

>  <ClogP>
2.947

>  <logS>
-2.755

>  <HBD>
1

>  <HBA>
3

>  <TPSA>
30.49

>  <RotBonds>
3

$$$$

  Mrv2205 11102315382D          

  0  0  0     0  0            999 V3000
M  V30 BEGIN CTAB
M  V30 COUNTS 11 11 0 0 0
M  V30 BEGIN ATOM
M  V30 1 C 1.3337 3.85 0 0
M  V30 2 C 1.3337 2.31 0 0
M  V30 3 C 2.6674 1.54 0 0
M  V30 4 C 2.6674 -0 0 0
M  V30 5 C 1.3337 -0.77 0 0
M  V30 6 C 0 0 0 0
M  V30 7 C 0 1.54 0 0
M  V30 8 S 1.3337 -2.31 0 0
M  V30 9 O 1.3337 -3.85 0 0
M  V30 10 O -0.2063 -2.31 0 0
M  V30 11 N 2.8737 -2.31 0 0
M  V30 END ATOM
M  V30 BEGIN BOND
M  V30 1 1 1 2
M  V30 2 1 2 3
M  V30 3 2 3 4
M  V30 4 1 4 5
M  V30 5 2 5 6
M  V30 6 1 6 7
M  V30 7 2 2 7
M  V30 8 1 5 8
M  V30 9 2 8 9
M  V30 10 2 8 10
M  V30 11 1 8 11
M  V30 END BOND
M  V30 END CTAB
M  END
>  <Catalog ID>
Z45415564

>  <MW>
171.035

>  <MW (desalted)>
171.217

>  <ClogP>
0.804

>  <logS>
-1.85

>  <HBD>
1

>  <HBA>
2

>  <TPSA>
60.16

>  <RotBonds>
1

$$$$

  Mrv2205 11102315382D          

  0  0  0     0  0            999 V3000
M  V30 BEGIN CTAB
M  V30 COUNTS 13 14 0 0 0
M  V30 BEGIN ATOM
M  V30 1 O -1.0896 -2.6365 0 0
M  V30 2 C -0.3196 -1.3028 0 0
M  V30 3 O -1.0896 0.0309 0 0
M  V30 4 C 1.2204 -1.3028 0 0
M  V30 5 C 2.1256 -0.0569 0 0
M  V30 6 C 3.5902 -0.5328 0 0
M  V30 7 C 4.9239 0.2372 0 0
M  V30 8 Cl 4.9239 1.7772 0 0
M  V30 9 C 6.2576 -0.5328 0 0
M  V30 10 C 6.2576 -2.0728 0 0
M  V30 11 C 4.9239 -2.8428 0 0
M  V30 12 C 3.5902 -2.0728 0 0
M  V30 13 N 2.1256 -2.5487 0 0
M  V30 END ATOM
M  V30 BEGIN BOND
M  V30 1 1 1 2
M  V30 2 2 2 3
M  V30 3 1 2 4
M  V30 4 2 4 5
M  V30 5 1 5 6
M  V30 6 1 6 7
M  V30 7 1 7 8
M  V30 8 2 7 9
M  V30 9 1 9 10
M  V30 10 2 10 11
M  V30 11 1 11 12
M  V30 12 2 6 12
M  V30 13 1 12 13
M  V30 14 1 4 13
M  V30 END BOND
M  V30 END CTAB
M  END
>  <Catalog ID>
Z119989536

>  <MW>
195.009

>  <MW (desalted)>
195.602

>  <ClogP>
2.925

>  <logS>
-3.42

>  <HBD>
2

>  <HBA>
2

>  <TPSA>
53.09

>  <RotBonds>
1

$$$$

  Mrv2205 11102315382D          

  0  0  0     0  0            999 V3000
M  V30 BEGIN CTAB
M  V30 COUNTS 10 10 0 0 0
M  V30 BEGIN ATOM
M  V30 1 N 0 4.62 0 0
M  V30 2 C 1.3337 3.85 0 0
M  V30 3 O 2.6674 4.62 0 0
M  V30 4 C 1.3337 2.31 0 0
M  V30 5 C 2.6674 1.54 0 0
M  V30 6 C 2.6674 -0 0 0
M  V30 7 C 1.3337 -0.77 0 0
M  V30 8 O 1.3337 -2.31 0 0
M  V30 9 C 0 0 0 0
M  V30 10 C 0 1.54 0 0
M  V30 END ATOM
M  V30 BEGIN BOND
M  V30 1 1 1 2
M  V30 2 2 2 3
M  V30 3 1 2 4
M  V30 4 1 4 5
M  V30 5 2 5 6
M  V30 6 1 6 7
M  V30 7 1 7 8
M  V30 8 2 7 9
M  V30 9 1 9 10
M  V30 10 2 4 10
M  V30 END BOND
M  V30 END CTAB
M  END
>  <Catalog ID>
Z104502228

>  <MW>
137.048

>  <MW (desalted)>
137.136

>  <ClogP>
0.327

>  <logS>
-1.17

>  <HBD>
2

>  <HBA>
2

>  <TPSA>
63.32

>  <RotBonds>
1

$$$$

  Mrv2205 11102315382D          

  0  0  0     0  0            999 V3000
M  V30 BEGIN CTAB
M  V30 COUNTS 9 9 0 0 0
M  V30 BEGIN ATOM
M  V30 1 C 0 4.62 0 0
M  V30 2 S 1.3337 3.85 0 0
M  V30 3 C 1.3337 2.31 0 0
M  V30 4 C 2.6674 1.54 0 0
M  V30 5 C 2.6674 -0 0 0
M  V30 6 C 1.3337 -0.77 0 0
M  V30 7 N 1.3337 -2.31 0 0
M  V30 8 C 0 0 0 0
M  V30 9 C 0 1.54 0 0
M  V30 END ATOM
M  V30 BEGIN BOND
M  V30 1 1 1 2
M  V30 2 1 2 3
M  V30 3 1 3 4
M  V30 4 2 4 5
M  V30 5 1 5 6
M  V30 6 1 6 7
M  V30 7 2 6 8
M  V30 8 1 8 9
M  V30 9 2 3 9
M  V30 END BOND
M  V30 END CTAB
M  END
>  <Catalog ID>
Z104511114

>  <MW>
139.046

>  <MW (desalted)>
139.218

>  <ClogP>
1.474

>  <logS>
-1.99

>  <HBD>
1

>  <HBA>
1

>  <TPSA>
26.02

>  <RotBonds>
1

$$$$

  Mrv2205 11102315382D          

  0  0  0     0  0            999 V3000
M  V30 BEGIN CTAB
M  V30 COUNTS 11 12 0 0 0
M  V30 BEGIN ATOM
M  V30 1 N -0.3196 -1.3028 0 0
M  V30 2 C 1.2204 -1.3028 0 0
M  V30 3 N 2.1256 -0.0569 0 0
M  V30 4 C 3.5902 -0.5328 0 0
M  V30 5 C 4.9239 0.2372 0 0
M  V30 6 C 6.2576 -0.5328 0 0
M  V30 7 Cl 7.5913 0.2372 0 0
M  V30 8 C 6.2576 -2.0728 0 0
M  V30 9 C 4.9239 -2.8428 0 0
M  V30 10 C 3.5902 -2.0728 0 0
M  V30 11 O 2.1256 -2.5487 0 0
M  V30 END ATOM
M  V30 BEGIN BOND
M  V30 1 1 1 2
M  V30 2 2 2 3
M  V30 3 1 3 4
M  V30 4 1 4 5
M  V30 5 2 5 6
M  V30 6 1 6 7
M  V30 7 1 6 8
M  V30 8 2 8 9
M  V30 9 1 9 10
M  V30 10 2 4 10
M  V30 11 1 10 11
M  V30 12 1 2 11
M  V30 END BOND
M  V30 END CTAB
M  END
>  <Catalog ID>
Z89267039

>  <MW>
168.009

>  <MW (desalted)>
168.58

>  <ClogP>
1.893

>  <logS>
-2.67

>  <HBD>
1

>  <HBA>
2

>  <TPSA>
52.05

>  <RotBonds>
0

$$$$

  Mrv2205 11102315382D          

  0  0  0     0  0            999 V3000
M  V30 BEGIN CTAB
M  V30 COUNTS 9 9 0 0 0
M  V30 BEGIN ATOM
M  V30 1 C 1.3337 3.85 0 0
M  V30 2 C 1.3337 2.31 0 0
M  V30 3 C 2.6674 1.54 0 0
M  V30 4 C 2.6674 -0 0 0
M  V30 5 C 4.001 -0.77 0 0
M  V30 6 N 1.3337 -0.77 0 0
M  V30 7 C 0 0 0 0
M  V30 8 N -1.3337 -0.77 0 0
M  V30 9 C 0 1.54 0 0
M  V30 END ATOM
M  V30 BEGIN BOND
M  V30 1 1 1 2
M  V30 2 1 2 3
M  V30 3 2 3 4
M  V30 4 1 4 5
M  V30 5 1 4 6
M  V30 6 2 6 7
M  V30 7 1 7 8
M  V30 8 1 7 9
M  V30 9 2 2 9
M  V30 END BOND
M  V30 END CTAB
M  END
>  <Catalog ID>
Z1192367241

>  <MW>
122.084

>  <MW (desalted)>
122.168

>  <ClogP>
1.316

>  <logS>
-1.28

>  <HBD>
1

>  <HBA>
2

>  <TPSA>
38.91

>  <RotBonds>
0

$$$$

  Mrv2205 11102315382D          

  0  0  0     0  0            999 V3000
M  V30 BEGIN CTAB
M  V30 COUNTS 10 10 0 0 0
M  V30 BEGIN ATOM
M  V30 1 O 0 4.62 0 0
M  V30 2 C 1.3337 3.85 0 0
M  V30 3 O 2.6674 4.62 0 0
M  V30 4 C 1.3337 2.31 0 0
M  V30 5 N 2.6674 1.54 0 0
M  V30 6 C 2.6674 -0 0 0
M  V30 7 C 1.3337 -0.77 0 0
M  V30 8 C 0 0 0 0
M  V30 9 C 0 1.54 0 0
M  V30 10 O -1.3337 2.31 0 0
M  V30 END ATOM
M  V30 BEGIN BOND
M  V30 1 1 1 2
M  V30 2 2 2 3
M  V30 3 1 2 4
M  V30 4 1 4 5
M  V30 5 2 5 6
M  V30 6 1 6 7
M  V30 7 2 7 8
M  V30 8 1 8 9
M  V30 9 2 4 9
M  V30 10 1 9 10
M  V30 END BOND
M  V30 END CTAB
M  END
>  <Catalog ID>
Z608353738

>  <MW>
139.027

>  <MW (desalted)>
139.109

>  <ClogP>
1.768

>  <logS>
-0.23

>  <HBD>
2

>  <HBA>
4

>  <TPSA>
70.42

>  <RotBonds>
1

$$$$

  Mrv2205 11102315382D          

  0  0  0     0  0            999 V3000
M  V30 BEGIN CTAB
M  V30 COUNTS 10 11 0 0 0
M  V30 BEGIN ATOM
M  V30 1 O 7.5913 4.3828 0 0
M  V30 2 C 6.2576 3.6128 0 0
M  V30 3 C 6.2576 2.0728 0 0
M  V30 4 C 4.9239 1.3028 0 0
M  V30 5 C 3.5902 2.0728 0 0
M  V30 6 C 2.1256 1.5969 0 0
M  V30 7 N 1.2204 2.8428 0 0
M  V30 8 N 2.1256 4.0887 0 0
M  V30 9 C 3.5902 3.6128 0 0
M  V30 10 C 4.9239 4.3828 0 0
M  V30 END ATOM
M  V30 BEGIN BOND
M  V30 1 1 1 2
M  V30 2 1 2 3
M  V30 3 2 3 4
M  V30 4 1 4 5
M  V30 5 1 5 6
M  V30 6 2 6 7
M  V30 7 1 7 8
M  V30 8 1 8 9
M  V30 9 2 5 9
M  V30 10 1 9 10
M  V30 11 2 2 10
M  V30 END BOND
M  V30 END CTAB
M  END
>  <Catalog ID>
Z1198147845

>  <MW>
134.048

>  <MW (desalted)>
134.135

>  <ClogP>
1.634

>  <logS>
-1.55

>  <HBD>
2

>  <HBA>
2

>  <TPSA>
48.91

>  <RotBonds>
0

$$$$

  Mrv2205 11102315382D          

  0  0  0     0  0            999 V3000
M  V30 BEGIN CTAB
M  V30 COUNTS 12 13 0 0 0
M  V30 BEGIN ATOM
M  V30 1 O -1.0896 -2.6365 0 0
M  V30 2 C -0.3196 -1.3028 0 0
M  V30 3 C 1.2204 -1.3028 0 0
M  V30 4 C 2.1256 -0.0569 0 0
M  V30 5 C 3.5902 -0.5328 0 0
M  V30 6 C 4.9239 0.2372 0 0
M  V30 7 Cl 4.9239 1.7772 0 0
M  V30 8 C 6.2576 -0.5328 0 0
M  V30 9 C 6.2576 -2.0728 0 0
M  V30 10 C 4.9239 -2.8428 0 0
M  V30 11 C 3.5902 -2.0728 0 0
M  V30 12 N 2.1256 -2.5487 0 0
M  V30 END ATOM
M  V30 BEGIN BOND
M  V30 1 1 1 2
M  V30 2 1 2 3
M  V30 3 2 3 4
M  V30 4 1 4 5
M  V30 5 1 5 6
M  V30 6 1 6 7
M  V30 7 2 6 8
M  V30 8 1 8 9
M  V30 9 2 9 10
M  V30 10 1 10 11
M  V30 11 2 5 11
M  V30 12 1 11 12
M  V30 13 1 3 12
M  V30 END BOND
M  V30 END CTAB
M  END
>  <Catalog ID>
Z1251357721

>  <MW>
181.029

>  <MW (desalted)>
181.619

>  <ClogP>
1.975

>  <logS>
-2.83

>  <HBD>
2

>  <HBA>
1

>  <TPSA>
36.02

>  <RotBonds>
1

$$$$

  Mrv2205 11102315382D          

  0  0  0     0  0            999 V3000
M  V30 BEGIN CTAB
M  V30 COUNTS 13 14 0 0 0
M  V30 BEGIN ATOM
M  V30 1 O 1.3337 -5.39 0 0
M  V30 2 C 2.6674 -4.62 0 0
M  V30 3 O 4.001 -5.39 0 0
M  V30 4 C 2.6674 -3.08 0 0
M  V30 5 C 1.3337 -2.31 0 0
M  V30 6 C 1.3337 -0.77 0 0
M  V30 7 C 2.6674 0 0 0
M  V30 8 C 4.001 -0.77 0 0
M  V30 9 O 5.3347 0 0 0
M  V30 10 C 6.6684 -0.77 0 0
M  V30 11 C 6.6684 -2.31 0 0
M  V30 12 O 5.3347 -3.08 0 0
M  V30 13 C 4.001 -2.31 0 0
M  V30 END ATOM
M  V30 BEGIN BOND
M  V30 1 1 1 2
M  V30 2 2 2 3
M  V30 3 1 2 4
M  V30 4 1 4 5
M  V30 5 2 5 6
M  V30 6 1 6 7
M  V30 7 2 7 8
M  V30 8 1 8 9
M  V30 9 1 9 10
M  V30 10 1 10 11
M  V30 11 1 11 12
M  V30 12 1 12 13
M  V30 13 2 4 13
M  V30 14 1 8 13
M  V30 END BOND
M  V30 END CTAB
M  END
>  <Catalog ID>
Z316118634

>  <MW>
180.042

>  <MW (desalted)>
180.157

>  <ClogP>
1.931

>  <logS>
-2.04

>  <HBD>
1

>  <HBA>
4

>  <TPSA>
55.76

>  <RotBonds>
1

$$$$

  Mrv2205 11102315382D          

  0  0  0     0  0            999 V3000
M  V30 BEGIN CTAB
M  V30 COUNTS 15 16 0 0 0
M  V30 BEGIN ATOM
M  V30 1 C 1.3337 -0.77 0 0
M  V30 2 C 1.3337 -2.31 0 0
M  V30 3 O 2.5796 -3.2152 0 0
M  V30 4 N 2.1037 -4.6798 0 0
M  V30 5 C 0.5637 -4.6798 0 0
M  V30 6 C 0.0878 -3.2152 0 0
M  V30 7 C -1.3768 -2.7393 0 0
M  V30 8 O -1.697 -1.233 0 0
M  V30 9 O -2.5213 -3.7698 0 0
M  V30 10 C -0.3415 -5.9257 0 0
M  V30 11 C 0.2849 -7.3326 0 0
M  V30 12 C -0.6203 -8.5784 0 0
M  V30 13 C -2.1519 -8.4175 0 0
M  V30 14 C -2.7783 -7.0106 0 0
M  V30 15 C -1.8731 -5.7647 0 0
M  V30 END ATOM
M  V30 BEGIN BOND
M  V30 1 1 1 2
M  V30 2 1 2 3
M  V30 3 1 3 4
M  V30 4 2 4 5
M  V30 5 1 5 6
M  V30 6 2 2 6
M  V30 7 1 6 7
M  V30 8 2 7 8
M  V30 9 1 7 9
M  V30 10 1 5 10
M  V30 11 1 10 11
M  V30 12 2 11 12
M  V30 13 1 12 13
M  V30 14 2 13 14
M  V30 15 1 14 15
M  V30 16 2 10 15
M  V30 END BOND
M  V30 END CTAB
M  END
>  <Catalog ID>
Z104482458

>  <MW>
203.058

>  <MW (desalted)>
203.194

>  <ClogP>
1.614

>  <logS>
-2.36

>  <HBD>
1

>  <HBA>
3

>  <TPSA>
63.33

>  <RotBonds>
2

$$$$

  Mrv2205 11102315382D          

  0  0  0     0  0            999 V3000
M  V30 BEGIN CTAB
M  V30 COUNTS 15 16 0 0 0
M  V30 BEGIN ATOM
M  V30 1 C 1.3337 -0.77 0 0
M  V30 2 N 1.3337 -2.31 0 0
M  V30 3 N 2.5796 -3.2152 0 0
M  V30 4 C 2.1037 -4.6798 0 0
M  V30 5 C 0.5637 -4.6798 0 0
M  V30 6 C -0.3415 -5.9257 0 0
M  V30 7 O 0.2849 -7.3326 0 0
M  V30 8 O -1.8731 -5.7647 0 0
M  V30 9 C 0.0878 -3.2152 0 0
M  V30 10 C -1.3768 -2.7393 0 0
M  V30 11 C -2.5213 -3.7698 0 0
M  V30 12 C -3.9859 -3.2939 0 0
M  V30 13 C -4.3061 -1.7875 0 0
M  V30 14 C -3.1616 -0.7571 0 0
M  V30 15 C -1.697 -1.233 0 0
M  V30 END ATOM
M  V30 BEGIN BOND
M  V30 1 1 1 2
M  V30 2 1 2 3
M  V30 3 2 3 4
M  V30 4 1 4 5
M  V30 5 1 5 6
M  V30 6 2 6 7
M  V30 7 1 6 8
M  V30 8 2 5 9
M  V30 9 1 2 9
M  V30 10 1 9 10
M  V30 11 1 10 11
M  V30 12 2 11 12
M  V30 13 1 12 13
M  V30 14 2 13 14
M  V30 15 1 14 15
M  V30 16 2 10 15
M  V30 END BOND
M  V30 END CTAB
M  END
>  <Catalog ID>
Z808584750

>  <MW>
202.074

>  <MW (desalted)>
202.209

>  <ClogP>
1.559

>  <logS>
-1.9

>  <HBD>
1

>  <HBA>
3

>  <TPSA>
55.12

>  <RotBonds>
2

$$$$

  Mrv2205 11102315382D          

  0  0  0     0  0            999 V3000
M  V30 BEGIN CTAB
M  V30 COUNTS 8 8 0 0 0
M  V30 BEGIN ATOM
M  V30 1 C 1.3337 3.85 0 0
M  V30 2 C 1.3337 2.31 0 0
M  V30 3 C 2.6674 1.54 0 0
M  V30 4 C 2.6674 -0 0 0
M  V30 5 C 1.3337 -0.77 0 0
M  V30 6 N 1.3337 -2.31 0 0
M  V30 7 C 0 0 0 0
M  V30 8 C 0 1.54 0 0
M  V30 END ATOM
M  V30 BEGIN BOND
M  V30 1 1 1 2
M  V30 2 1 2 3
M  V30 3 2 3 4
M  V30 4 1 4 5
M  V30 5 1 5 6
M  V30 6 2 5 7
M  V30 7 1 7 8
M  V30 8 2 2 8
M  V30 END BOND
M  V30 END CTAB
M  END
>  <Catalog ID>
Z57127875

>  <MW>
107.073

>  <MW (desalted)>
107.153

>  <ClogP>
1.414

>  <logS>
-1.69

>  <HBD>
1

>  <HBA>
1

>  <TPSA>
26.02

>  <RotBonds>
0

$$$$

  Mrv2205 11102315382D          

  0  0  0     0  0            999 V3000
M  V30 BEGIN CTAB
M  V30 COUNTS 10 10 0 0 0
M  V30 BEGIN ATOM
M  V30 1 O 0 4.62 0 0
M  V30 2 C 1.3337 3.85 0 0
M  V30 3 O 2.6674 4.62 0 0
M  V30 4 C 1.3337 2.31 0 0
M  V30 5 C 2.6674 1.54 0 0
M  V30 6 C 2.6674 -0 0 0
M  V30 7 C 1.3337 -0.77 0 0
M  V30 8 C 0 0 0 0
M  V30 9 C 0 1.54 0 0
M  V30 10 Br -1.3337 2.31 0 0
M  V30 END ATOM
M  V30 BEGIN BOND
M  V30 1 1 1 2
M  V30 2 2 2 3
M  V30 3 1 2 4
M  V30 4 1 4 5
M  V30 5 2 5 6
M  V30 6 1 6 7
M  V30 7 2 7 8
M  V30 8 1 8 9
M  V30 9 2 4 9
M  V30 10 1 9 10
M  V30 END BOND
M  V30 END CTAB
M  END
>  <Catalog ID>
Z57825381

>  <MW>
199.947

>  <MW (desalted)>
201.017

>  <ClogP>
2.196

>  <logS>
-2.65

>  <HBD>
1

>  <HBA>
2

>  <TPSA>
37.3

>  <RotBonds>
1

$$$$

  Mrv2205 11102315382D          

  0  0  0     0  0            999 V3000
M  V30 BEGIN CTAB
M  V30 COUNTS 10 10 0 0 0
M  V30 BEGIN ATOM
M  V30 1 N 0 6.16 0 0
M  V30 2 N 0 4.62 0 0
M  V30 3 C 1.3337 3.85 0 0
M  V30 4 O 2.6674 4.62 0 0
M  V30 5 C 1.3337 2.31 0 0
M  V30 6 C 2.6674 1.54 0 0
M  V30 7 C 2.6674 -0 0 0
M  V30 8 C 1.3337 -0.77 0 0
M  V30 9 C 0 0 0 0
M  V30 10 C 0 1.54 0 0
M  V30 END ATOM
M  V30 BEGIN BOND
M  V30 1 1 1 2
M  V30 2 1 2 3
M  V30 3 2 3 4
M  V30 4 1 3 5
M  V30 5 1 5 6
M  V30 6 2 6 7
M  V30 7 1 7 8
M  V30 8 2 8 9
M  V30 9 1 9 10
M  V30 10 2 5 10
M  V30 END BOND
M  V30 END CTAB
M  END
>  <Catalog ID>
Z56926669

>  <MW>
136.064

>  <MW (desalted)>
136.151

>  <ClogP>
0.265

>  <logS>
-1.65

>  <HBD>
2

>  <HBA>
2

>  <TPSA>
55.12

>  <RotBonds>
1

$$$$

  Mrv2205 11102315382D          

  0  0  0     0  0            999 V3000
M  V30 BEGIN CTAB
M  V30 COUNTS 10 10 0 0 0
M  V30 BEGIN ATOM
M  V30 1 C 0 6.16 0 0
M  V30 2 C 0 4.62 0 0
M  V30 3 C 1.3337 3.85 0 0
M  V30 4 C 1.3337 2.31 0 0
M  V30 5 C 2.6674 1.54 0 0
M  V30 6 C 2.6674 -0 0 0
M  V30 7 C 1.3337 -0.77 0 0
M  V30 8 C 0 0 0 0
M  V30 9 C 0 1.54 0 0
M  V30 10 N -1.3337 2.31 0 0
M  V30 END ATOM
M  V30 BEGIN BOND
M  V30 1 1 1 2
M  V30 2 1 2 3
M  V30 3 1 3 4
M  V30 4 1 4 5
M  V30 5 2 5 6
M  V30 6 1 6 7
M  V30 7 2 7 8
M  V30 8 1 8 9
M  V30 9 2 4 9
M  V30 10 1 9 10
M  V30 END BOND
M  V30 END CTAB
M  END
>  <Catalog ID>
Z336087926

>  <MW>
135.105

>  <MW (desalted)>
135.206

>  <ClogP>
2.422

>  <logS>
-2.52

>  <HBD>
1

>  <HBA>
1

>  <TPSA>
26.02

>  <RotBonds>
2

$$$$

  Mrv2205 11102315382D          

  0  0  0     0  0            999 V3000
M  V30 BEGIN CTAB
M  V30 COUNTS 13 14 0 0 0
M  V30 BEGIN ATOM
M  V30 1 C 0.1434 -4.3335 0 0
M  V30 2 C 1.6497 -4.0133 0 0
M  V30 3 O 2.6802 -5.1578 0 0
M  V30 4 C 2.1256 -2.5487 0 0
M  V30 5 C 1.2204 -1.3028 0 0
M  V30 6 N 2.1256 -0.0569 0 0
M  V30 7 C 3.5902 -0.5328 0 0
M  V30 8 C 4.9239 0.2372 0 0
M  V30 9 C 6.2576 -0.5328 0 0
M  V30 10 F 7.5913 0.2372 0 0
M  V30 11 C 6.2576 -2.0728 0 0
M  V30 12 C 4.9239 -2.8428 0 0
M  V30 13 C 3.5902 -2.0728 0 0
M  V30 END ATOM
M  V30 BEGIN BOND
M  V30 1 1 1 2
M  V30 2 2 2 3
M  V30 3 1 2 4
M  V30 4 2 4 5
M  V30 5 1 5 6
M  V30 6 1 6 7
M  V30 7 1 7 8
M  V30 8 2 8 9
M  V30 9 1 9 10
M  V30 10 1 9 11
M  V30 11 2 11 12
M  V30 12 1 12 13
M  V30 13 1 4 13
M  V30 14 2 7 13
M  V30 END BOND
M  V30 END CTAB
M  END
>  <Catalog ID>
Z234897299

>  <MW>
177.059

>  <MW (desalted)>
177.175

>  <ClogP>
2.198

>  <logS>
-2.85

>  <HBD>
1

>  <HBA>
1

>  <TPSA>
32.86

>  <RotBonds>
1

$$$$

  Mrv2205 11102315382D          

  0  0  0     0  0            999 V3000
M  V30 BEGIN CTAB
M  V30 COUNTS 15 16 0 0 0
M  V30 BEGIN ATOM
M  V30 1 C 8.925 3.6128 0 0
M  V30 2 O 7.5913 4.3828 0 0
M  V30 3 C 6.2576 3.6128 0 0
M  V30 4 C 6.2576 2.0728 0 0
M  V30 5 C 4.9239 1.3028 0 0
M  V30 6 C 3.5902 2.0728 0 0
M  V30 7 N 2.1256 1.5969 0 0
M  V30 8 C 1.2204 2.8428 0 0
M  V30 9 C 2.1256 4.0887 0 0
M  V30 10 C 1.6497 5.5533 0 0
M  V30 11 C 2.6802 6.6978 0 0
M  V30 12 O 2.2043 8.1624 0 0
M  V30 13 O 4.1865 6.3776 0 0
M  V30 14 C 3.5902 3.6128 0 0
M  V30 15 C 4.9239 4.3828 0 0
M  V30 END ATOM
M  V30 BEGIN BOND
M  V30 1 1 1 2
M  V30 2 1 2 3
M  V30 3 1 3 4
M  V30 4 2 4 5
M  V30 5 1 5 6
M  V30 6 1 6 7
M  V30 7 1 7 8
M  V30 8 2 8 9
M  V30 9 1 9 10
M  V30 10 1 10 11
M  V30 11 2 11 12
M  V30 12 1 11 13
M  V30 13 1 9 14
M  V30 14 2 6 14
M  V30 15 1 14 15
M  V30 16 2 3 15
M  V30 END BOND
M  V30 END CTAB
M  END
>  <Catalog ID>
Z385472506

>  <MW>
205.074

>  <MW (desalted)>
205.21

>  <ClogP>
1.425

>  <logS>
-1.89

>  <HBD>
2

>  <HBA>
3

>  <TPSA>
62.32

>  <RotBonds>
3

$$$$

  Mrv2205 11102315382D          

  0  0  0     0  0            999 V3000
M  V30 BEGIN CTAB
M  V30 COUNTS 9 10 0 0 0
M  V30 BEGIN ATOM
M  V30 1 C 2.1256 -2.5487 0 0
M  V30 2 N 1.2204 -1.3028 0 0
M  V30 3 O 2.1256 -0.0569 0 0
M  V30 4 C 3.5902 -0.5328 0 0
M  V30 5 C 4.9239 0.2372 0 0
M  V30 6 C 6.2576 -0.5328 0 0
M  V30 7 C 6.2576 -2.0728 0 0
M  V30 8 C 4.9239 -2.8428 0 0
M  V30 9 C 3.5902 -2.0728 0 0
M  V30 END ATOM
M  V30 BEGIN BOND
M  V30 1 2 1 2
M  V30 2 1 2 3
M  V30 3 1 3 4
M  V30 4 1 4 5
M  V30 5 2 5 6
M  V30 6 1 6 7
M  V30 7 2 7 8
M  V30 8 1 8 9
M  V30 9 1 1 9
M  V30 10 2 4 9
M  V30 END BOND
M  V30 END CTAB
M  END
>  <Catalog ID>
Z220335556

>  <MW>
119.037

>  <MW (desalted)>
119.121

>  <ClogP>
1.505

>  <logS>
-1.48

>  <HBD>
0

>  <HBA>
1

>  <TPSA>
26.03

>  <RotBonds>
0

$$$$

  Mrv2205 11102315382D          

  0  0  0     0  0            999 V3000
M  V30 BEGIN CTAB
M  V30 COUNTS 9 9 0 0 0
M  V30 BEGIN ATOM
M  V30 1 O 0 6.16 0 0
M  V30 2 C 0 4.62 0 0
M  V30 3 C 1.3337 3.85 0 0
M  V30 4 C 1.3337 2.31 0 0
M  V30 5 C 2.6674 1.54 0 0
M  V30 6 C 2.6674 -0 0 0
M  V30 7 C 1.3337 -0.77 0 0
M  V30 8 C 0 0 0 0
M  V30 9 C 0 1.54 0 0
M  V30 END ATOM
M  V30 BEGIN BOND
M  V30 1 1 1 2
M  V30 2 1 2 3
M  V30 3 1 3 4
M  V30 4 1 4 5
M  V30 5 2 5 6
M  V30 6 1 6 7
M  V30 7 2 7 8
M  V30 8 1 8 9
M  V30 9 2 4 9
M  V30 END BOND
M  V30 END CTAB
M  END
>  <Catalog ID>
Z104473586

>  <MW>
122.073

>  <MW (desalted)>
122.164

>  <ClogP>
1.333

>  <logS>
-0.97

>  <HBD>
1

>  <HBA>
1

>  <TPSA>
20.23

>  <RotBonds>
2

$$$$

  Mrv2205 11102315382D          

  0  0  0     0  0            999 V3000
M  V30 BEGIN CTAB
M  V30 COUNTS 10 10 0 0 0
M  V30 BEGIN ATOM
M  V30 1 N 0 4.62 0 0
M  V30 2 C 1.3337 3.85 0 0
M  V30 3 O 2.6674 4.62 0 0
M  V30 4 C 1.3337 2.31 0 0
M  V30 5 C 2.6674 1.54 0 0
M  V30 6 C 2.6674 -0 0 0
M  V30 7 C 1.3337 -0.77 0 0
M  V30 8 C 0 0 0 0
M  V30 9 Cl -1.3337 -0.77 0 0
M  V30 10 C 0 1.54 0 0
M  V30 END ATOM
M  V30 BEGIN BOND
M  V30 1 1 1 2
M  V30 2 2 2 3
M  V30 3 1 2 4
M  V30 4 1 4 5
M  V30 5 2 5 6
M  V30 6 1 6 7
M  V30 7 2 7 8
M  V30 8 1 8 9
M  V30 9 1 8 10
M  V30 10 2 4 10
M  V30 END BOND
M  V30 END CTAB
M  END
>  <Catalog ID>
Z33546479

>  <MW>
155.014

>  <MW (desalted)>
155.582

>  <ClogP>
1.536

>  <logS>
-2.34

>  <HBD>
1

>  <HBA>
1

>  <TPSA>
43.09

>  <RotBonds>
1

$$$$

  Mrv2205 11102315382D          

  0  0  0     0  0            999 V3000
M  V30 BEGIN CTAB
M  V30 COUNTS 11 11 0 0 0
M  V30 BEGIN ATOM
M  V30 1 O 0 4.62 0 0
M  V30 2 C 1.3337 3.85 0 0
M  V30 3 O 2.6674 4.62 0 0
M  V30 4 C 1.3337 2.31 0 0
M  V30 5 C 2.6674 1.54 0 0
M  V30 6 N 2.6674 -0 0 0
M  V30 7 C 1.3337 -0.77 0 0
M  V30 8 O 1.3337 -2.31 0 0
M  V30 9 N 0 0 0 0
M  V30 10 C 0 1.54 0 0
M  V30 11 O -1.3337 2.31 0 0
M  V30 END ATOM
M  V30 BEGIN BOND
M  V30 1 1 1 2
M  V30 2 2 2 3
M  V30 3 1 2 4
M  V30 4 2 4 5
M  V30 5 1 5 6
M  V30 6 1 6 7
M  V30 7 2 7 8
M  V30 8 1 7 9
M  V30 9 1 9 10
M  V30 10 1 4 10
M  V30 11 2 10 11
M  V30 END BOND
M  V30 END CTAB
M  END
>  <Catalog ID>
Z104477702

>  <MW>
156.017

>  <MW (desalted)>
156.096

>  <ClogP>
-0.754

>  <logS>
-1.05

>  <HBD>
3

>  <HBA>
4

>  <TPSA>
95.5

>  <RotBonds>
1

$$$$

  Mrv2205 11102315382D          

  0  0  0     0  0            999 V3000
M  V30 BEGIN CTAB
M  V30 COUNTS 12 12 0 0 0
M  V30 BEGIN ATOM
M  V30 1 C 0 6.16 0 0
M  V30 2 O 0 4.62 0 0
M  V30 3 C 1.3337 3.85 0 0
M  V30 4 O 2.6674 4.62 0 0
M  V30 5 C 1.3337 2.31 0 0
M  V30 6 C 2.6674 1.54 0 0
M  V30 7 C 2.6674 -0 0 0
M  V30 8 C 1.3337 -0.77 0 0
M  V30 9 Cl 1.3337 -2.31 0 0
M  V30 10 C 0 0 0 0
M  V30 11 C 0 1.54 0 0
M  V30 12 N -1.3337 2.31 0 0
M  V30 END ATOM
M  V30 BEGIN BOND
M  V30 1 1 1 2
M  V30 2 1 2 3
M  V30 3 2 3 4
M  V30 4 1 3 5
M  V30 5 1 5 6
M  V30 6 2 6 7
M  V30 7 1 7 8
M  V30 8 1 8 9
M  V30 9 2 8 10
M  V30 10 1 10 11
M  V30 11 2 5 11
M  V30 12 1 11 12
M  V30 END BOND
M  V30 END CTAB
M  END
>  <Catalog ID>
Z53833897

>  <MW>
185.024

>  <MW (desalted)>
185.608

>  <ClogP>
2.935

>  <logS>
-2.29

>  <HBD>
1

>  <HBA>
2

>  <TPSA>
52.32

>  <RotBonds>
2

$$$$

  Mrv2205 11102315382D          

  0  0  0     0  0            999 V3000
M  V30 BEGIN CTAB
M  V30 COUNTS 13 15 0 0 0
M  V30 BEGIN ATOM
M  V30 1 O 3.4022 -1.1957 0 0
M  V30 2 C 2.497 0.0502 0 0
M  V30 3 N 0.957 0.0502 0 0
M  V30 4 C 0.4812 1.5148 0 0
M  V30 5 C -0.9257 2.1412 0 0
M  V30 6 C -1.0867 3.6727 0 0
M  V30 7 C 0.1592 4.5779 0 0
M  V30 8 C 1.5661 3.9515 0 0
M  V30 9 C 3.2949 4.5779 0 0
M  V30 10 C 4.5408 3.6727 0 0
M  V30 11 C 4.3798 2.1412 0 0
M  V30 12 C 2.9729 1.5148 0 0
M  V30 13 C 1.727 2.42 0 0
M  V30 END ATOM
M  V30 BEGIN BOND
M  V30 1 2 1 2
M  V30 2 1 2 3
M  V30 3 1 3 4
M  V30 4 1 4 5
M  V30 5 2 5 6
M  V30 6 1 6 7
M  V30 7 2 7 8
M  V30 8 1 8 9
M  V30 9 2 9 10
M  V30 10 1 10 11
M  V30 11 2 11 12
M  V30 12 1 2 12
M  V30 13 1 12 13
M  V30 14 2 4 13
M  V30 15 1 8 13
M  V30 END BOND
M  V30 END CTAB
M  END
>  <Catalog ID>
Z56899189

>  <MW>
169.053

>  <MW (desalted)>
169.179

>  <ClogP>
1.802

>  <logS>
-3.53

>  <HBD>
1

>  <HBA>
1

>  <TPSA>
29.1

>  <RotBonds>
0

$$$$

  Mrv2205 11102315382D          

  0  0  0     0  0            999 V3000
M  V30 BEGIN CTAB
M  V30 COUNTS 16 17 0 0 0
M  V30 BEGIN ATOM
M  V30 1 O 1.3337 -0.77 0 0
M  V30 2 C 2.6674 0 0 0
M  V30 3 O 2.6674 1.54 0 0
M  V30 4 C 4.001 -0.77 0 0
M  V30 5 C 4.001 -2.31 0 0
M  V30 6 C 5.3347 -3.08 0 0
M  V30 7 C 5.3347 -4.62 0 0
M  V30 8 C 4.001 -5.39 0 0
M  V30 9 C 2.6674 -4.62 0 0
M  V30 10 C 2.6674 -3.08 0 0
M  V30 11 C 5.3347 0 0 0
M  V30 12 C 5.3347 1.54 0 0
M  V30 13 C 6.6684 2.31 0 0
M  V30 14 C 8.0021 1.54 0 0
M  V30 15 C 8.0021 0 0 0
M  V30 16 C 6.6684 -0.77 0 0
M  V30 END ATOM
M  V30 BEGIN BOND
M  V30 1 1 1 2
M  V30 2 2 2 3
M  V30 3 1 2 4
M  V30 4 1 4 5
M  V30 5 1 5 6
M  V30 6 2 6 7
M  V30 7 1 7 8
M  V30 8 2 8 9
M  V30 9 1 9 10
M  V30 10 2 5 10
M  V30 11 1 4 11
M  V30 12 1 11 12
M  V30 13 2 12 13
M  V30 14 1 13 14
M  V30 15 2 14 15
M  V30 16 1 15 16
M  V30 17 2 11 16
M  V30 END BOND
M  V30 END CTAB
M  END
>  <Catalog ID>
Z104477292

>  <MW>
212.084

>  <MW (desalted)>
212.244

>  <ClogP>
2.762

>  <logS>
-2.72

>  <HBD>
1

>  <HBA>
2

>  <TPSA>
37.3

>  <RotBonds>
3

$$$$

  Mrv2205 11102315382D          

  0  0  0     0  0            999 V3000
M  V30 BEGIN CTAB
M  V30 COUNTS 9 9 0 0 0
M  V30 BEGIN ATOM
M  V30 1 O 1.0598 3.62 0 0
M  V30 2 C 1.0598 2.08 0 0
M  V30 3 O 2.3057 1.1748 0 0
M  V30 4 C 1.8298 -0.2898 0 0
M  V30 5 C 0.2898 -0.2898 0 0
M  V30 6 N -0.1861 1.1748 0 0
M  V30 7 C -1.6507 1.6507 0 0
M  V30 8 C -2.7951 0.6202 0 0
M  V30 9 C -3.9396 -0.4102 0 0
M  V30 END ATOM
M  V30 BEGIN BOND
M  V30 1 2 1 2
M  V30 2 1 2 3
M  V30 3 1 3 4
M  V30 4 1 4 5
M  V30 5 1 5 6
M  V30 6 1 2 6
M  V30 7 1 6 7
M  V30 8 1 7 8
M  V30 9 3 8 9
M  V30 END BOND
M  V30 END CTAB
M  END
>  <Catalog ID>
Z804943488

>  <MW>
125.048

>  <MW (desalted)>
125.125

>  <ClogP>
0.554

>  <logS>
-1.199

>  <HBD>
0

>  <HBA>
1

>  <TPSA>
29.54

>  <RotBonds>
1

$$$$

  Mrv2205 11102315382D          

  0  0  0     0  0            999 V3000
M  V30 BEGIN CTAB
M  V30 COUNTS 11 11 0 0 0
M  V30 BEGIN ATOM
M  V30 1 N 1.3337 3.85 0 0
M  V30 2 C 1.3337 2.31 0 0
M  V30 3 C 2.6674 1.54 0 0
M  V30 4 C 2.6674 -0 0 0
M  V30 5 C 1.3337 -0.77 0 0
M  V30 6 Br 1.3337 -2.31 0 0
M  V30 7 C 0 0 0 0
M  V30 8 C 0 1.54 0 0
M  V30 9 C -1.3337 2.31 0 0
M  V30 10 O -1.3337 3.85 0 0
M  V30 11 O -2.6674 1.54 0 0
M  V30 END ATOM
M  V30 BEGIN BOND
M  V30 1 1 1 2
M  V30 2 1 2 3
M  V30 3 2 3 4
M  V30 4 1 4 5
M  V30 5 1 5 6
M  V30 6 2 5 7
M  V30 7 1 7 8
M  V30 8 2 2 8
M  V30 9 1 8 9
M  V30 10 2 9 10
M  V30 11 1 9 11
M  V30 END BOND
M  V30 END CTAB
M  END
>  <Catalog ID>
Z104484428

>  <MW>
214.958

>  <MW (desalted)>
216.032

>  <ClogP>
2.198

>  <logS>
-2.48

>  <HBD>
2

>  <HBA>
3

>  <TPSA>
63.32

>  <RotBonds>
1

$$$$

  Mrv2205 11102315382D          

  0  0  0     0  0            999 V3000
M  V30 BEGIN CTAB
M  V30 COUNTS 10 10 0 0 0
M  V30 BEGIN ATOM
M  V30 1 O 0 4.62 0 0
M  V30 2 C 1.3337 3.85 0 0
M  V30 3 O 2.6674 4.62 0 0
M  V30 4 C 1.3337 2.31 0 0
M  V30 5 C 2.6674 1.54 0 0
M  V30 6 C 2.6674 -0 0 0
M  V30 7 C 1.3337 -0.77 0 0
M  V30 8 O 1.3337 -2.31 0 0
M  V30 9 C 0 0 0 0
M  V30 10 C 0 1.54 0 0
M  V30 END ATOM
M  V30 BEGIN BOND
M  V30 1 1 1 2
M  V30 2 2 2 3
M  V30 3 1 2 4
M  V30 4 1 4 5
M  V30 5 2 5 6
M  V30 6 1 6 7
M  V30 7 1 7 8
M  V30 8 2 7 9
M  V30 9 1 9 10
M  V30 10 2 4 10
M  V30 END BOND
M  V30 END CTAB
M  END
>  <Catalog ID>
Z104498098

>  <MW>
138.032

>  <MW (desalted)>
138.121

>  <ClogP>
1.557

>  <logS>
-1.12

>  <HBD>
2

>  <HBA>
3

>  <TPSA>
57.53

>  <RotBonds>
1

$$$$

  Mrv2205 11102315382D          

  0  0  0     0  0            999 V3000
M  V30 BEGIN CTAB
M  V30 COUNTS 9 10 0 0 0
M  V30 BEGIN ATOM
M  V30 1 C 1.2204 -1.3028 0 0
M  V30 2 C 2.1256 -0.0569 0 0
M  V30 3 C 3.5902 -0.5328 0 0
M  V30 4 C 4.9239 0.2372 0 0
M  V30 5 C 6.2576 -0.5328 0 0
M  V30 6 C 6.2576 -2.0728 0 0
M  V30 7 C 4.9239 -2.8428 0 0
M  V30 8 C 3.5902 -2.0728 0 0
M  V30 9 N 2.1256 -2.5487 0 0
M  V30 END ATOM
M  V30 BEGIN BOND
M  V30 1 2 1 2
M  V30 2 1 2 3
M  V30 3 1 3 4
M  V30 4 2 4 5
M  V30 5 1 5 6
M  V30 6 2 6 7
M  V30 7 1 7 8
M  V30 8 2 3 8
M  V30 9 1 8 9
M  V30 10 1 1 9
M  V30 END BOND
M  V30 END CTAB
M  END
>  <Catalog ID>
Z57833933

>  <MW>
117.058

>  <MW (desalted)>
117.148

>  <ClogP>
2.132

>  <logS>
-2.24

>  <HBD>
1

>  <HBA>
0

>  <TPSA>
15.79

>  <RotBonds>
0

$$$$

  Mrv2205 11102315382D          

  0  0  0     0  0            999 V3000
M  V30 BEGIN CTAB
M  V30 COUNTS 9 9 0 0 0
M  V30 BEGIN ATOM
M  V30 1 F 1.0598 5.16 0 0
M  V30 2 C 1.0598 3.62 0 0
M  V30 3 F -0.4802 3.62 0 0
M  V30 4 F 2.5998 3.62 0 0
M  V30 5 C 1.0598 2.08 0 0
M  V30 6 C 2.3057 1.1748 0 0
M  V30 7 N 1.8298 -0.2898 0 0
M  V30 8 C 0.2898 -0.2898 0 0
M  V30 9 N -0.1861 1.1748 0 0
M  V30 END ATOM
M  V30 BEGIN BOND
M  V30 1 1 1 2
M  V30 2 1 2 3
M  V30 3 1 2 4
M  V30 4 1 2 5
M  V30 5 2 5 6
M  V30 6 1 6 7
M  V30 7 2 7 8
M  V30 8 1 8 9
M  V30 9 1 5 9
M  V30 END BOND
M  V30 END CTAB
M  END
>  <Catalog ID>
Z440623534

>  <MW>
136.025

>  <MW (desalted)>
136.075

>  <ClogP>
1.035

>  <logS>
-1.62

>  <HBD>
1

>  <HBA>
1

>  <TPSA>
28.68

>  <RotBonds>
1

$$$$

  Mrv2205 11102315382D          

  0  0  0     0  0            999 V3000
M  V30 BEGIN CTAB
M  V30 COUNTS 10 10 0 0 0
M  V30 BEGIN ATOM
M  V30 1 C 1.3337 3.85 0 0
M  V30 2 C 1.3337 2.31 0 0
M  V30 3 C 2.6674 1.54 0 0
M  V30 4 C 2.6674 -0 0 0
M  V30 5 C 1.3337 -0.77 0 0
M  V30 6 C 0 0 0 0
M  V30 7 C 0 1.54 0 0
M  V30 8 C 1.3337 -2.31 0 0
M  V30 9 O 2.6674 -3.08 0 0
M  V30 10 O -0 -3.08 0 0
M  V30 END ATOM
M  V30 BEGIN BOND
M  V30 1 1 1 2
M  V30 2 1 2 3
M  V30 3 2 3 4
M  V30 4 1 4 5
M  V30 5 2 5 6
M  V30 6 1 6 7
M  V30 7 2 2 7
M  V30 8 1 5 8
M  V30 9 2 8 9
M  V30 10 1 8 10
M  V30 END BOND
M  V30 END CTAB
M  END
>  <Catalog ID>
Z57902424

>  <MW>
136.052

>  <MW (desalted)>
136.148

>  <ClogP>
2.384

>  <logS>
-2.02

>  <HBD>
1

>  <HBA>
2

>  <TPSA>
37.3

>  <RotBonds>
1

$$$$

  Mrv2205 11102315382D          

  0  0  0     0  0            999 V3000
M  V30 BEGIN CTAB
M  V30 COUNTS 10 10 0 0 0
M  V30 BEGIN ATOM
M  V30 1 O 0 6.16 0 0
M  V30 2 C 0 4.62 0 0
M  V30 3 C 1.3337 3.85 0 0
M  V30 4 C 1.3337 2.31 0 0
M  V30 5 C 2.6674 1.54 0 0
M  V30 6 C 2.6674 -0 0 0
M  V30 7 C 1.3337 -0.77 0 0
M  V30 8 F 1.3337 -2.31 0 0
M  V30 9 C 0 0 0 0
M  V30 10 C 0 1.54 0 0
M  V30 END ATOM
M  V30 BEGIN BOND
M  V30 1 1 1 2
M  V30 2 1 2 3
M  V30 3 1 3 4
M  V30 4 1 4 5
M  V30 5 2 5 6
M  V30 6 1 6 7
M  V30 7 1 7 8
M  V30 8 2 7 9
M  V30 9 1 9 10
M  V30 10 2 4 10
M  V30 END BOND
M  V30 END CTAB
M  END
>  <Catalog ID>
Z397587326

>  <MW>
140.064

>  <MW (desalted)>
140.155

>  <ClogP>
1.476

>  <logS>
-1.27

>  <HBD>
1

>  <HBA>
1

>  <TPSA>
20.23

>  <RotBonds>
2

$$$$

  Mrv2205 11102315382D          

  0  0  0     0  0            999 V3000
M  V30 BEGIN CTAB
M  V30 COUNTS 13 14 0 0 0
M  V30 BEGIN ATOM
M  V30 1 C 7.5913 4.3828 0 0
M  V30 2 C 6.2576 3.6128 0 0
M  V30 3 C 6.2576 2.0728 0 0
M  V30 4 C 4.9239 1.3028 0 0
M  V30 5 C 3.5902 2.0728 0 0
M  V30 6 C 2.1256 1.5969 0 0
M  V30 7 C 1.2204 2.8428 0 0
M  V30 8 N 2.1256 4.0887 0 0
M  V30 9 C 3.5902 3.6128 0 0
M  V30 10 C 4.9239 4.3828 0 0
M  V30 11 C -0.3196 2.8428 0 0
M  V30 12 O -1.0896 1.5091 0 0
M  V30 13 O -1.0896 4.1765 0 0
M  V30 END ATOM
M  V30 BEGIN BOND
M  V30 1 1 1 2
M  V30 2 1 2 3
M  V30 3 2 3 4
M  V30 4 1 4 5
M  V30 5 1 5 6
M  V30 6 2 6 7
M  V30 7 1 7 8
M  V30 8 1 8 9
M  V30 9 2 5 9
M  V30 10 1 9 10
M  V30 11 2 2 10
M  V30 12 1 7 11
M  V30 13 2 11 12
M  V30 14 1 11 13
M  V30 END BOND
M  V30 END CTAB
M  END
>  <Catalog ID>
Z119989628

>  <MW>
175.063

>  <MW (desalted)>
175.184

>  <ClogP>
2.63

>  <logS>
-3.17

>  <HBD>
2

>  <HBA>
2

>  <TPSA>
53.09

>  <RotBonds>
1

$$$$

  Mrv2205 11102315382D          

  0  0  0     0  0            999 V3000
M  V30 BEGIN CTAB
M  V30 COUNTS 13 14 0 0 0
M  V30 BEGIN ATOM
M  V30 1 C 5.1978 1.3028 0 0
M  V30 2 C 3.8641 2.0728 0 0
M  V30 3 C 2.5304 1.3028 0 0
M  V30 4 C 1.1967 2.0728 0 0
M  V30 5 C -0.2679 1.5969 0 0
M  V30 6 O -0.7438 0.1323 0 0
M  V30 7 C -1.1731 2.8428 0 0
M  V30 8 O -2.7131 2.8428 0 0
M  V30 9 N -0.2679 4.0887 0 0
M  V30 10 C 1.1967 3.6128 0 0
M  V30 11 C 2.5304 4.3828 0 0
M  V30 12 Br 2.5304 5.9228 0 0
M  V30 13 C 3.8641 3.6128 0 0
M  V30 END ATOM
M  V30 BEGIN BOND
M  V30 1 1 1 2
M  V30 2 1 2 3
M  V30 3 2 3 4
M  V30 4 1 4 5
M  V30 5 2 5 6
M  V30 6 1 5 7
M  V30 7 2 7 8
M  V30 8 1 7 9
M  V30 9 1 9 10
M  V30 10 1 4 10
M  V30 11 2 10 11
M  V30 12 1 11 12
M  V30 13 1 11 13
M  V30 14 2 2 13
M  V30 END BOND
M  V30 END CTAB
M  END
>  <Catalog ID>
Z111834284

>  <MW>
238.958

>  <MW (desalted)>
240.053

>  <ClogP>
2.19

>  <logS>
-3.69

>  <HBD>
1

>  <HBA>
2

>  <TPSA>
46.17

>  <RotBonds>
0

$$$$

  Mrv2205 11102315382D          

  0  0  0     0  0            999 V3000
M  V30 BEGIN CTAB
M  V30 COUNTS 13 14 0 0 0
M  V30 BEGIN ATOM
M  V30 1 O 0 0 0 0
M  V30 2 C 1.3337 -0.77 0 0
M  V30 3 C 1.3337 -2.31 0 0
M  V30 4 C 2.5796 -3.2152 0 0
M  V30 5 C 2.1037 -4.6798 0 0
M  V30 6 O 0.5637 -4.6798 0 0
M  V30 7 N 0.0878 -3.2152 0 0
M  V30 8 C 3.0089 -5.9257 0 0
M  V30 9 C 4.5404 -5.7647 0 0
M  V30 10 C 5.4456 -7.0106 0 0
M  V30 11 C 4.8192 -8.4175 0 0
M  V30 12 C 3.2877 -8.5784 0 0
M  V30 13 C 2.3825 -7.3326 0 0
M  V30 END ATOM
M  V30 BEGIN BOND
M  V30 1 1 1 2
M  V30 2 1 2 3
M  V30 3 1 3 4
M  V30 4 2 4 5
M  V30 5 1 5 6
M  V30 6 1 6 7
M  V30 7 2 3 7
M  V30 8 1 5 8
M  V30 9 1 8 9
M  V30 10 2 9 10
M  V30 11 1 10 11
M  V30 12 2 11 12
M  V30 13 1 12 13
M  V30 14 2 8 13
M  V30 END BOND
M  V30 END CTAB
M  END
>  <Catalog ID>
Z431953146

>  <MW>
175.063

>  <MW (desalted)>
175.184

>  <ClogP>
1.181

>  <logS>
-1.93

>  <HBD>
1

>  <HBA>
2

>  <TPSA>
46.26

>  <RotBonds>
2

$$$$

  Mrv2205 11102315382D          

  0  0  0     0  0            999 V3000
M  V30 BEGIN CTAB
M  V30 COUNTS 14 14 0 0 0
M  V30 BEGIN ATOM
M  V30 1 O 2.6674 -7.7 0 0
M  V30 2 C 4.001 -6.93 0 0
M  V30 3 O 4.001 -5.39 0 0
M  V30 4 C 5.3347 -7.7 0 0
M  V30 5 N 6.6684 -6.93 0 0
M  V30 6 C 8.0021 -7.7 0 0
M  V30 7 O 8.0021 -9.24 0 0
M  V30 8 N 9.3358 -6.93 0 0
M  V30 9 C 10.6694 -7.7 0 0
M  V30 10 C 12.0031 -6.93 0 0
M  V30 11 C 13.3368 -7.7 0 0
M  V30 12 C 13.3368 -9.24 0 0
M  V30 13 C 12.0031 -10.01 0 0
M  V30 14 C 10.6694 -9.24 0 0
M  V30 END ATOM
M  V30 BEGIN BOND
M  V30 1 1 1 2
M  V30 2 2 2 3
M  V30 3 1 2 4
M  V30 4 1 4 5
M  V30 5 1 5 6
M  V30 6 2 6 7
M  V30 7 1 6 8
M  V30 8 1 8 9
M  V30 9 1 9 10
M  V30 10 1 10 11
M  V30 11 1 11 12
M  V30 12 1 12 13
M  V30 13 1 13 14
M  V30 14 1 9 14
M  V30 END BOND
M  V30 END CTAB
M  END
>  <Catalog ID>
Z228589126

>  <MW>
200.116

>  <MW (desalted)>
200.235

>  <ClogP>
1.431

>  <logS>
-1.67

>  <HBD>
3

>  <HBA>
3

>  <TPSA>
78.43

>  <RotBonds>
3

$$$$

  Mrv2205 11102315382D          

  0  0  0     0  0            999 V3000
M  V30 BEGIN CTAB
M  V30 COUNTS 15 16 0 0 0
M  V30 BEGIN ATOM
M  V30 1 O 2.6674 -0 0 0
M  V30 2 C 1.3337 -0.77 0 0
M  V30 3 O 0 0 0 0
M  V30 4 C 1.3337 -2.31 0 0
M  V30 5 C 2.6674 -3.08 0 0
M  V30 6 N 2.6674 -4.62 0 0
M  V30 7 C 1.3337 -5.39 0 0
M  V30 8 C 0 -4.62 0 0
M  V30 9 C 0 -3.08 0 0
M  V30 10 C -1.3337 -5.39 0 0
M  V30 11 C -1.3337 -6.93 0 0
M  V30 12 C -2.6674 -7.7 0 0
M  V30 13 C -4.001 -6.93 0 0
M  V30 14 C -4.001 -5.39 0 0
M  V30 15 C -2.6674 -4.62 0 0
M  V30 END ATOM
M  V30 BEGIN BOND
M  V30 1 1 1 2
M  V30 2 2 2 3
M  V30 3 1 2 4
M  V30 4 1 4 5
M  V30 5 2 5 6
M  V30 6 1 6 7
M  V30 7 2 7 8
M  V30 8 1 8 9
M  V30 9 2 4 9
M  V30 10 1 8 10
M  V30 11 1 10 11
M  V30 12 2 11 12
M  V30 13 1 12 13
M  V30 14 2 13 14
M  V30 15 1 14 15
M  V30 16 2 10 15
M  V30 END BOND
M  V30 END CTAB
M  END
>  <Catalog ID>
Z363993550

>  <MW>
199.063

>  <MW (desalted)>
199.205

>  <ClogP>
2.687

>  <logS>
-2.82

>  <HBD>
1

>  <HBA>
3

>  <TPSA>
50.19

>  <RotBonds>
2

$$$$

  Mrv2205 11102315382D          

  0  0  0     0  0            999 V3000
M  V30 BEGIN CTAB
M  V30 COUNTS 8 8 0 0 0
M  V30 BEGIN ATOM
M  V30 1 O 1.3337 3.85 0 0
M  V30 2 C 1.3337 2.31 0 0
M  V30 3 C 2.6674 1.54 0 0
M  V30 4 C 2.6674 -0 0 0
M  V30 5 N 1.3337 -0.77 0 0
M  V30 6 C 0 0 0 0
M  V30 7 O -1.3337 -0.77 0 0
M  V30 8 N 0 1.54 0 0
M  V30 END ATOM
M  V30 BEGIN BOND
M  V30 1 2 1 2
M  V30 2 1 2 3
M  V30 3 1 3 4
M  V30 4 1 4 5
M  V30 5 1 5 6
M  V30 6 2 6 7
M  V30 7 1 6 8
M  V30 8 1 2 8
M  V30 END BOND
M  V30 END CTAB
M  END
>  <Catalog ID>
Z57033885

>  <MW>
114.043

>  <MW (desalted)>
114.103

>  <ClogP>
-1.232

>  <logS>
0.34

>  <HBD>
2

>  <HBA>
2

>  <TPSA>
58.2

>  <RotBonds>
0

$$$$

  Mrv2205 11102315382D          

  0  0  0     0  0            999 V3000
M  V30 BEGIN CTAB
M  V30 COUNTS 9 9 0 0 0
M  V30 BEGIN ATOM
M  V30 1 N 0 4.62 0 0
M  V30 2 C 1.3337 3.85 0 0
M  V30 3 O 2.6674 4.62 0 0
M  V30 4 C 1.3337 2.31 0 0
M  V30 5 C 2.6674 1.54 0 0
M  V30 6 C 2.6674 -0 0 0
M  V30 7 C 1.3337 -0.77 0 0
M  V30 8 C 0 0 0 0
M  V30 9 N 0 1.54 0 0
M  V30 END ATOM
M  V30 BEGIN BOND
M  V30 1 1 1 2
M  V30 2 2 2 3
M  V30 3 1 2 4
M  V30 4 1 4 5
M  V30 5 2 5 6
M  V30 6 1 6 7
M  V30 7 2 7 8
M  V30 8 1 8 9
M  V30 9 2 4 9
M  V30 END BOND
M  V30 END CTAB
M  END
>  <Catalog ID>
Z33546380

>  <MW>
122.048

>  <MW (desalted)>
122.125

>  <ClogP>
0.144

>  <logS>
-0.67

>  <HBD>
1

>  <HBA>
2

>  <TPSA>
55.98

>  <RotBonds>
1

$$$$

  Mrv2205 11102315382D          

  0  0  0     0  0            999 V3000
M  V30 BEGIN CTAB
M  V30 COUNTS 10 10 0 0 0
M  V30 BEGIN ATOM
M  V30 1 N 1.3337 5.39 0 0
M  V30 2 S 1.3337 3.85 0 0
M  V30 3 O -0.2063 3.85 0 0
M  V30 4 O 2.8737 3.85 0 0
M  V30 5 N 1.3337 2.31 0 0
M  V30 6 C 2.6674 1.54 0 0
M  V30 7 C 2.6674 -0 0 0
M  V30 8 C 1.3337 -0.77 0 0
M  V30 9 C 0 0 0 0
M  V30 10 C 0 1.54 0 0
M  V30 END ATOM
M  V30 BEGIN BOND
M  V30 1 1 1 2
M  V30 2 2 2 3
M  V30 3 2 2 4
M  V30 4 1 2 5
M  V30 5 1 5 6
M  V30 6 1 6 7
M  V30 7 1 7 8
M  V30 8 1 8 9
M  V30 9 1 9 10
M  V30 10 1 5 10
M  V30 END BOND
M  V30 END CTAB
M  END
>  <Catalog ID>
Z300095616

>  <MW>
164.062

>  <MW (desalted)>
164.226

>  <ClogP>
0.96

>  <logS>
-0.5

>  <HBD>
1

>  <HBA>
3

>  <TPSA>
63.4

>  <RotBonds>
0

$$$$

  Mrv2205 11102315382D          

  0  0  0     0  0            999 V3000
M  V30 BEGIN CTAB
M  V30 COUNTS 11 11 0 0 0
M  V30 BEGIN ATOM
M  V30 1 C 1.0598 3.62 0 0
M  V30 2 C 1.0598 2.08 0 0
M  V30 3 N 2.3057 1.1748 0 0
M  V30 4 N 1.8298 -0.2898 0 0
M  V30 5 C 2.735 -1.5357 0 0
M  V30 6 C 0.2898 -0.2898 0 0
M  V30 7 C -0.6154 -1.5357 0 0
M  V30 8 C -0.1861 1.1748 0 0
M  V30 9 C -1.6507 1.6507 0 0
M  V30 10 C -1.9709 3.157 0 0
M  V30 11 O -3.4355 3.6329 0 0
M  V30 END ATOM
M  V30 BEGIN BOND
M  V30 1 1 1 2
M  V30 2 2 2 3
M  V30 3 1 3 4
M  V30 4 1 4 5
M  V30 5 1 4 6
M  V30 6 1 6 7
M  V30 7 2 6 8
M  V30 8 1 2 8
M  V30 9 1 8 9
M  V30 10 1 9 10
M  V30 11 1 10 11
M  V30 END BOND
M  V30 END CTAB
M  END
>  <Catalog ID>
Z1198175704

>  <MW>
154.111

>  <MW (desalted)>
154.21

>  <ClogP>
-0.344

>  <logS>
0.61

>  <HBD>
1

>  <HBA>
2

>  <TPSA>
38.05

>  <RotBonds>
2

$$$$

  Mrv2205 11102315382D          

  0  0  0     0  0            999 V3000
M  V30 BEGIN CTAB
M  V30 COUNTS 12 12 0 0 0
M  V30 BEGIN ATOM
M  V30 1 N -1.3337 6.93 0 0
M  V30 2 N 0 6.16 0 0
M  V30 3 C 0 4.62 0 0
M  V30 4 O -1.3337 3.85 0 0
M  V30 5 C 1.3337 3.85 0 0
M  V30 6 C 1.3337 2.31 0 0
M  V30 7 C 2.6674 1.54 0 0
M  V30 8 C 2.6674 -0 0 0
M  V30 9 C 1.3337 -0.77 0 0
M  V30 10 F 1.3337 -2.31 0 0
M  V30 11 C 0 0 0 0
M  V30 12 C 0 1.54 0 0
M  V30 END ATOM
M  V30 BEGIN BOND
M  V30 1 1 1 2
M  V30 2 1 2 3
M  V30 3 2 3 4
M  V30 4 1 3 5
M  V30 5 1 5 6
M  V30 6 1 6 7
M  V30 7 2 7 8
M  V30 8 1 8 9
M  V30 9 1 9 10
M  V30 10 2 9 11
M  V30 11 1 11 12
M  V30 12 2 6 12
M  V30 END BOND
M  V30 END CTAB
M  END
>  <Catalog ID>
Z56347387

>  <MW>
168.07

>  <MW (desalted)>
168.168

>  <ClogP>
0.287

>  <logS>
-1.49

>  <HBD>
2

>  <HBA>
2

>  <TPSA>
55.12

>  <RotBonds>
2

$$$$

  Mrv2205 11102315382D          

  0  0  0     0  0            999 V3000
M  V30 BEGIN CTAB
M  V30 COUNTS 10 10 0 0 0
M  V30 BEGIN ATOM
M  V30 1 N 0 4.62 0 0
M  V30 2 C 1.3337 3.85 0 0
M  V30 3 O 2.6674 4.62 0 0
M  V30 4 C 1.3337 2.31 0 0
M  V30 5 C 2.6674 1.54 0 0
M  V30 6 C 2.6674 -0 0 0
M  V30 7 C 1.3337 -0.77 0 0
M  V30 8 C 0 0 0 0
M  V30 9 C 0 1.54 0 0
M  V30 10 O -1.3337 2.31 0 0
M  V30 END ATOM
M  V30 BEGIN BOND
M  V30 1 1 1 2
M  V30 2 2 2 3
M  V30 3 1 2 4
M  V30 4 1 4 5
M  V30 5 2 5 6
M  V30 6 1 6 7
M  V30 7 2 7 8
M  V30 8 1 8 9
M  V30 9 2 4 9
M  V30 10 1 9 10
M  V30 END BOND
M  V30 END CTAB
M  END
>  <Catalog ID>
Z68590124

>  <MW>
137.048

>  <MW (desalted)>
137.136

>  <ClogP>
1.277

>  <logS>
-1.17

>  <HBD>
2

>  <HBA>
2

>  <TPSA>
63.32

>  <RotBonds>
1

$$$$

  Mrv2205 11102315382D          

  0  0  0     0  0            999 V3000
M  V30 BEGIN CTAB
M  V30 COUNTS 8 8 0 0 0
M  V30 BEGIN ATOM
M  V30 1 O 1.3337 3.85 0 0
M  V30 2 C 1.3337 2.31 0 0
M  V30 3 C 2.6674 1.54 0 0
M  V30 4 C 2.6674 -0 0 0
M  V30 5 N 1.3337 -0.77 0 0
M  V30 6 C 0 0 0 0
M  V30 7 O -1.3337 -0.77 0 0
M  V30 8 N 0 1.54 0 0
M  V30 END ATOM
M  V30 BEGIN BOND
M  V30 1 2 1 2
M  V30 2 1 2 3
M  V30 3 2 3 4
M  V30 4 1 4 5
M  V30 5 1 5 6
M  V30 6 2 6 7
M  V30 7 1 6 8
M  V30 8 1 2 8
M  V30 END BOND
M  V30 END CTAB
M  END
>  <Catalog ID>
Z56889474

>  <MW>
112.027

>  <MW (desalted)>
112.087

>  <ClogP>
-1.056

>  <logS>
-0.88

>  <HBD>
2

>  <HBA>
2

>  <TPSA>
58.2

>  <RotBonds>
0

$$$$

  Mrv2205 11102315382D          

  0  0  0     0  0            999 V3000
M  V30 BEGIN CTAB
M  V30 COUNTS 8 8 0 0 0
M  V30 BEGIN ATOM
M  V30 1 C 1.3337 3.85 0 0
M  V30 2 C 1.3337 2.31 0 0
M  V30 3 C 2.6674 1.54 0 0
M  V30 4 C 2.6674 -0 0 0
M  V30 5 C 1.3337 -0.77 0 0
M  V30 6 N 1.3337 -2.31 0 0
M  V30 7 N 0 0 0 0
M  V30 8 C 0 1.54 0 0
M  V30 END ATOM
M  V30 BEGIN BOND
M  V30 1 1 1 2
M  V30 2 1 2 3
M  V30 3 2 3 4
M  V30 4 1 4 5
M  V30 5 1 5 6
M  V30 6 2 5 7
M  V30 7 1 7 8
M  V30 8 2 2 8
M  V30 END BOND
M  V30 END CTAB
M  END
>  <Catalog ID>
Z104475374

>  <MW>
108.069

>  <MW (desalted)>
108.141

>  <ClogP>
0.817

>  <logS>
-0.86

>  <HBD>
1

>  <HBA>
2

>  <TPSA>
38.91

>  <RotBonds>
0

$$$$

  Mrv2205 11102315382D          

  0  0  0     0  0            999 V3000
M  V30 BEGIN CTAB
M  V30 COUNTS 9 9 0 0 0
M  V30 BEGIN ATOM
M  V30 1 N 0 4.62 0 0
M  V30 2 C 1.3337 3.85 0 0
M  V30 3 O 2.6674 4.62 0 0
M  V30 4 C 1.3337 2.31 0 0
M  V30 5 C 2.6674 1.54 0 0
M  V30 6 C 2.6674 -0 0 0
M  V30 7 C 1.3337 -0.77 0 0
M  V30 8 N 0 0 0 0
M  V30 9 C 0 1.54 0 0
M  V30 END ATOM
M  V30 BEGIN BOND
M  V30 1 1 1 2
M  V30 2 2 2 3
M  V30 3 1 2 4
M  V30 4 1 4 5
M  V30 5 2 5 6
M  V30 6 1 6 7
M  V30 7 2 7 8
M  V30 8 1 8 9
M  V30 9 2 4 9
M  V30 END BOND
M  V30 END CTAB
M  END
>  <Catalog ID>
Z33546463

>  <MW>
122.048

>  <MW (desalted)>
122.125

>  <ClogP>
-0.206

>  <logS>
-0.42

>  <HBD>
1

>  <HBA>
2

>  <TPSA>
55.98

>  <RotBonds>
1

$$$$

  Mrv2205 11102315382D          

  0  0  0     0  0            999 V3000
M  V30 BEGIN CTAB
M  V30 COUNTS 10 10 0 0 0
M  V30 BEGIN ATOM
M  V30 1 O 0 4.62 0 0
M  V30 2 C 1.3337 3.85 0 0
M  V30 3 O 2.6674 4.62 0 0
M  V30 4 C 1.3337 2.31 0 0
M  V30 5 C 2.6674 1.54 0 0
M  V30 6 N 2.6674 -0 0 0
M  V30 7 C 1.3337 -0.77 0 0
M  V30 8 C 0 0 0 0
M  V30 9 O -1.3337 -0.77 0 0
M  V30 10 C 0 1.54 0 0
M  V30 END ATOM
M  V30 BEGIN BOND
M  V30 1 1 1 2
M  V30 2 2 2 3
M  V30 3 1 2 4
M  V30 4 1 4 5
M  V30 5 2 5 6
M  V30 6 1 6 7
M  V30 7 2 7 8
M  V30 8 1 8 9
M  V30 9 1 8 10
M  V30 10 2 4 10
M  V30 END BOND
M  V30 END CTAB
M  END
>  <Catalog ID>
Z57124104

>  <MW>
139.027

>  <MW (desalted)>
139.109

>  <ClogP>
1.138

>  <logS>
0.02

>  <HBD>
2

>  <HBA>
4

>  <TPSA>
70.42

>  <RotBonds>
1

$$$$

  Mrv2205 11102315382D          

  0  0  0     0  0            999 V3000
M  V30 BEGIN CTAB
M  V30 COUNTS 12 12 0 0 0
M  V30 BEGIN ATOM
M  V30 1 C 0 4.62 0 0
M  V30 2 O 1.3337 3.85 0 0
M  V30 3 C 1.3337 2.31 0 0
M  V30 4 C 2.6674 1.54 0 0
M  V30 5 C 2.6674 -0 0 0
M  V30 6 C 1.3337 -0.77 0 0
M  V30 7 C 0 0 0 0
M  V30 8 C 0 1.54 0 0
M  V30 9 S 1.3337 -2.31 0 0
M  V30 10 O 1.3337 -3.85 0 0
M  V30 11 O -0.2063 -2.31 0 0
M  V30 12 N 2.8737 -2.31 0 0
M  V30 END ATOM
M  V30 BEGIN BOND
M  V30 1 1 1 2
M  V30 2 1 2 3
M  V30 3 1 3 4
M  V30 4 2 4 5
M  V30 5 1 5 6
M  V30 6 2 6 7
M  V30 7 1 7 8
M  V30 8 2 3 8
M  V30 9 1 6 9
M  V30 10 2 9 10
M  V30 11 2 9 11
M  V30 12 1 9 12
M  V30 END BOND
M  V30 END CTAB
M  END
>  <Catalog ID>
Z45415561

>  <MW>
187.03

>  <MW (desalted)>
187.216

>  <ClogP>
0.549

>  <logS>
-1.36

>  <HBD>
1

>  <HBA>
3

>  <TPSA>
69.39

>  <RotBonds>
2

$$$$

  Mrv2205 11102315382D          

  0  0  0     0  0            999 V3000
M  V30 BEGIN CTAB
M  V30 COUNTS 12 12 0 0 0
M  V30 BEGIN ATOM
M  V30 1 O -1.3337 6.93 0 0
M  V30 2 C 0 6.16 0 0
M  V30 3 O 1.3337 6.93 0 0
M  V30 4 C 0 4.62 0 0
M  V30 5 O -1.3337 3.85 0 0
M  V30 6 N 1.3337 3.85 0 0
M  V30 7 C 1.3337 2.31 0 0
M  V30 8 C 2.6674 1.54 0 0
M  V30 9 C 2.6674 -0 0 0
M  V30 10 C 1.3337 -0.77 0 0
M  V30 11 C 0 0 0 0
M  V30 12 C 0 1.54 0 0
M  V30 END ATOM
M  V30 BEGIN BOND
M  V30 1 1 1 2
M  V30 2 2 2 3
M  V30 3 1 2 4
M  V30 4 2 4 5
M  V30 5 1 4 6
M  V30 6 1 6 7
M  V30 7 1 7 8
M  V30 8 2 8 9
M  V30 9 1 9 10
M  V30 10 2 10 11
M  V30 11 1 11 12
M  V30 12 2 7 12
M  V30 END BOND
M  V30 END CTAB
M  END
>  <Catalog ID>
Z362848468

>  <MW>
165.043

>  <MW (desalted)>
165.146

>  <ClogP>
-0.085

>  <logS>
-1.75

>  <HBD>
2

>  <HBA>
3

>  <TPSA>
66.4

>  <RotBonds>
2

$$$$

  Mrv2205 11102315382D          

  0  0  0     0  0            999 V3000
M  V30 BEGIN CTAB
M  V30 COUNTS 15 16 0 0 0
M  V30 BEGIN ATOM
M  V30 1 C 0 1.54 0 0
M  V30 2 N 0 0 0 0
M  V30 3 C 1.3337 -0.77 0 0
M  V30 4 C 1.3337 -2.31 0 0
M  V30 5 C 2.6674 -3.08 0 0
M  V30 6 C 2.6674 -4.62 0 0
M  V30 7 C 1.3337 -5.39 0 0
M  V30 8 C 0 -4.62 0 0
M  V30 9 C 0 -3.08 0 0
M  V30 10 N 1.3337 -6.93 0 0
M  V30 11 C 2.6674 -7.7 0 0
M  V30 12 C 2.6674 -9.24 0 0
M  V30 13 C 1.3337 -10.01 0 0
M  V30 14 C 0 -9.24 0 0
M  V30 15 C 0 -7.7 0 0
M  V30 END ATOM
M  V30 BEGIN BOND
M  V30 1 1 1 2
M  V30 2 1 2 3
M  V30 3 1 3 4
M  V30 4 1 4 5
M  V30 5 2 5 6
M  V30 6 1 6 7
M  V30 7 2 7 8
M  V30 8 1 8 9
M  V30 9 2 4 9
M  V30 10 1 7 10
M  V30 11 1 10 11
M  V30 12 1 11 12
M  V30 13 1 12 13
M  V30 14 1 13 14
M  V30 15 1 14 15
M  V30 16 1 10 15
M  V30 END BOND
M  V30 END CTAB
M  END
>  <Catalog ID>
Z102767654

>  <MW>
204.163

>  <MW (desalted)>
204.311

>  <ClogP>
2.348

>  <logS>
-1.79

>  <HBD>
1

>  <HBA>
2

>  <TPSA>
15.27

>  <RotBonds>
3

$$$$

  Mrv2205 11102315382D          

  0  0  0     0  0            999 V3000
M  V30 BEGIN CTAB
M  V30 COUNTS 15 16 0 0 0
M  V30 BEGIN ATOM
M  V30 1 C 1.6497 -4.0133 0 0
M  V30 2 N 2.1256 -2.5487 0 0
M  V30 3 C 1.2204 -1.3028 0 0
M  V30 4 C 2.1256 -0.0569 0 0
M  V30 5 C 1.6497 1.4077 0 0
M  V30 6 C 0.1434 1.7279 0 0
M  V30 7 C -0.3325 3.1925 0 0
M  V30 8 O -1.8389 3.5127 0 0
M  V30 9 O 0.698 4.3369 0 0
M  V30 10 C 3.5902 -0.5328 0 0
M  V30 11 C 4.9239 0.2372 0 0
M  V30 12 C 6.2576 -0.5328 0 0
M  V30 13 C 6.2576 -2.0728 0 0
M  V30 14 C 4.9239 -2.8428 0 0
M  V30 15 C 3.5902 -2.0728 0 0
M  V30 END ATOM
M  V30 BEGIN BOND
M  V30 1 1 1 2
M  V30 2 1 2 3
M  V30 3 2 3 4
M  V30 4 1 4 5
M  V30 5 1 5 6
M  V30 6 1 6 7
M  V30 7 2 7 8
M  V30 8 1 7 9
M  V30 9 1 4 10
M  V30 10 1 10 11
M  V30 11 2 11 12
M  V30 12 1 12 13
M  V30 13 2 13 14
M  V30 14 1 14 15
M  V30 15 1 2 15
M  V30 16 2 10 15
M  V30 END BOND
M  V30 END CTAB
M  END
>  <Catalog ID>
Z335290460

>  <MW>
203.095

>  <MW (desalted)>
203.237

>  <ClogP>
2.359

>  <logS>
-1.41

>  <HBD>
1

>  <HBA>
2

>  <TPSA>
42.23

>  <RotBonds>
3

$$$$

  Mrv2205 11102315382D          

  0  0  0     0  0            999 V3000
M  V30 BEGIN CTAB
M  V30 COUNTS 16 16 0 0 0
M  V30 BEGIN ATOM
M  V30 1 Cl 0 0 0 0
M  V30 2 F 3.3 3.3113 0 0
M  V30 3 C 4.6337 2.5413 0 0
M  V30 4 F 3.8637 1.2077 0 0
M  V30 5 F 5.4037 3.875 0 0
M  V30 6 C 5.9674 1.7713 0 0
M  V30 7 C 7.301 2.5413 0 0
M  V30 8 C 8.6347 1.7713 0 0
M  V30 9 N 8.6347 0.2313 0 0
M  V30 10 C 7.301 -0.5387 0 0
M  V30 11 N 5.9674 0.2313 0 0
M  V30 12 C 7.301 -2.0787 0 0
M  V30 13 C 8.5469 -2.9839 0 0
M  V30 14 C 8.071 -4.4485 0 0
M  V30 15 C 6.531 -4.4485 0 0
M  V30 16 N 6.0552 -2.9839 0 0
M  V30 END ATOM
M  V30 BEGIN BOND
M  V30 1 1 2 3
M  V30 2 1 3 4
M  V30 3 1 3 5
M  V30 4 1 3 6
M  V30 5 1 6 7
M  V30 6 2 7 8
M  V30 7 1 8 9
M  V30 8 2 9 10
M  V30 9 1 10 11
M  V30 10 2 6 11
M  V30 11 1 10 12
M  V30 12 1 12 13
M  V30 13 1 13 14
M  V30 14 1 14 15
M  V30 15 1 15 16
M  V30 16 1 12 16
M  V30 END BOND
M  V30 END CTAB
M  END
>  <Catalog ID>
Z2512961790

>  <MW>
253.652

>  <MW (desalted)>
217.191

>  <ClogP>
0.43

>  <logS>
-1.859

>  <HBD>
1

>  <HBA>
3

>  <TPSA>
37.81

>  <RotBonds>
2

$$$$

  Mrv2205 11102315382D          

  0  0  0     0  0            999 V3000
M  V30 BEGIN CTAB
M  V30 COUNTS 7 7 0 0 0
M  V30 BEGIN ATOM
M  V30 1 O 1.0598 3.62 0 0
M  V30 2 C 1.0598 2.08 0 0
M  V30 3 C 2.3057 1.1748 0 0
M  V30 4 N 1.8298 -0.2898 0 0
M  V30 5 C 0.2898 -0.2898 0 0
M  V30 6 O -0.6154 -1.5357 0 0
M  V30 7 N -0.1861 1.1748 0 0
M  V30 END ATOM
M  V30 BEGIN BOND
M  V30 1 2 1 2
M  V30 2 1 2 3
M  V30 3 1 3 4
M  V30 4 1 4 5
M  V30 5 2 5 6
M  V30 6 1 5 7
M  V30 7 1 2 7
M  V30 END BOND
M  V30 END CTAB
M  END
>  <Catalog ID>
Z57131035

>  <MW>
100.027

>  <MW (desalted)>
100.076

>  <ClogP>
-1.691

>  <logS>
0.26

>  <HBD>
2

>  <HBA>
2

>  <TPSA>
58.2

>  <RotBonds>
0

$$$$

  Mrv2205 11102315382D          

  0  0  0     0  0            999 V3000
M  V30 BEGIN CTAB
M  V30 COUNTS 10 10 0 0 0
M  V30 BEGIN ATOM
M  V30 1 C 0 6.16 0 0
M  V30 2 C 0 4.62 0 0
M  V30 3 O 1.3337 3.85 0 0
M  V30 4 C 1.3337 2.31 0 0
M  V30 5 C 2.6674 1.54 0 0
M  V30 6 C 2.6674 -0 0 0
M  V30 7 C 1.3337 -0.77 0 0
M  V30 8 C 0 0 0 0
M  V30 9 C 0 1.54 0 0
M  V30 10 O -1.3337 2.31 0 0
M  V30 END ATOM
M  V30 BEGIN BOND
M  V30 1 1 1 2
M  V30 2 1 2 3
M  V30 3 1 3 4
M  V30 4 1 4 5
M  V30 5 2 5 6
M  V30 6 1 6 7
M  V30 7 2 7 8
M  V30 8 1 8 9
M  V30 9 2 4 9
M  V30 10 1 9 10
M  V30 END BOND
M  V30 END CTAB
M  END
>  <Catalog ID>
Z104480244

>  <MW>
138.068

>  <MW (desalted)>
138.164

>  <ClogP>
1.853

>  <logS>
-1.35

>  <HBD>
1

>  <HBA>
2

>  <TPSA>
29.46

>  <RotBonds>
2

$$$$

  Mrv2205 11102315382D          

  0  0  0     0  0            999 V3000
M  V30 BEGIN CTAB
M  V30 COUNTS 11 11 0 0 0
M  V30 BEGIN ATOM
M  V30 1 N 1.3337 5.39 0 0
M  V30 2 S 1.3337 3.85 0 0
M  V30 3 O -0.2063 3.85 0 0
M  V30 4 O 2.8737 3.85 0 0
M  V30 5 C 1.3337 2.31 0 0
M  V30 6 C 2.6674 1.54 0 0
M  V30 7 C 2.6674 -0 0 0
M  V30 8 C 1.3337 -0.77 0 0
M  V30 9 C 0 0 0 0
M  V30 10 C 0 1.54 0 0
M  V30 11 Cl -1.3337 2.31 0 0
M  V30 END ATOM
M  V30 BEGIN BOND
M  V30 1 1 1 2
M  V30 2 2 2 3
M  V30 3 2 2 4
M  V30 4 1 2 5
M  V30 5 1 5 6
M  V30 6 2 6 7
M  V30 7 1 7 8
M  V30 8 2 8 9
M  V30 9 1 9 10
M  V30 10 2 5 10
M  V30 11 1 10 11
M  V30 END BOND
M  V30 END CTAB
M  END
>  <Catalog ID>
Z45415618

>  <MW>
190.981

>  <MW (desalted)>
191.635

>  <ClogP>
0.964

>  <logS>
-2.1

>  <HBD>
1

>  <HBA>
2

>  <TPSA>
60.16

>  <RotBonds>
1

$$$$

  Mrv2205 11102315382D          

  0  0  0     0  0            999 V3000
M  V30 BEGIN CTAB
M  V30 COUNTS 11 12 0 0 0
M  V30 BEGIN ATOM
M  V30 1 N 0 -3.08 0 0
M  V30 2 C 1.3337 -2.31 0 0
M  V30 3 C 1.3337 -0.77 0 0
M  V30 4 C 2.6674 0 0 0
M  V30 5 C 4.001 -0.77 0 0
M  V30 6 C 5.3347 0 0 0
M  V30 7 C 6.6684 -0.77 0 0
M  V30 8 C 6.6684 -2.31 0 0
M  V30 9 C 5.3347 -3.08 0 0
M  V30 10 C 4.001 -2.31 0 0
M  V30 11 N 2.6674 -3.08 0 0
M  V30 END ATOM
M  V30 BEGIN BOND
M  V30 1 1 1 2
M  V30 2 1 2 3
M  V30 3 2 3 4
M  V30 4 1 4 5
M  V30 5 1 5 6
M  V30 6 2 6 7
M  V30 7 1 7 8
M  V30 8 2 8 9
M  V30 9 1 9 10
M  V30 10 2 5 10
M  V30 11 1 10 11
M  V30 12 2 2 11
M  V30 END BOND
M  V30 END CTAB
M  END
>  <Catalog ID>
Z56347237

>  <MW>
144.069

>  <MW (desalted)>
144.173

>  <ClogP>
1.702

>  <logS>
-2.39

>  <HBD>
1

>  <HBA>
2

>  <TPSA>
38.91

>  <RotBonds>
0

$$$$

  Mrv2205 11102315382D          

  0  0  0     0  0            999 V3000
M  V30 BEGIN CTAB
M  V30 COUNTS 9 10 0 0 0
M  V30 BEGIN ATOM
M  V30 1 C 2.1256 -2.5487 0 0
M  V30 2 N 1.2204 -1.3028 0 0
M  V30 3 N 2.1256 -0.0569 0 0
M  V30 4 C 3.5902 -0.5328 0 0
M  V30 5 C 4.9239 0.2372 0 0
M  V30 6 C 6.2576 -0.5328 0 0
M  V30 7 C 6.2576 -2.0728 0 0
M  V30 8 C 4.9239 -2.8428 0 0
M  V30 9 C 3.5902 -2.0728 0 0
M  V30 END ATOM
M  V30 BEGIN BOND
M  V30 1 2 1 2
M  V30 2 1 2 3
M  V30 3 1 3 4
M  V30 4 1 4 5
M  V30 5 2 5 6
M  V30 6 1 6 7
M  V30 7 2 7 8
M  V30 8 1 8 9
M  V30 9 1 1 9
M  V30 10 2 4 9
M  V30 END BOND
M  V30 END CTAB
M  END
>  <Catalog ID>
Z276614452

>  <MW>
118.053

>  <MW (desalted)>
118.136

>  <ClogP>
1.625

>  <logS>
-1.93

>  <HBD>
1

>  <HBA>
1

>  <TPSA>
28.68

>  <RotBonds>
0

$$$$

  Mrv2205 11102315382D          

  0  0  0     0  0            999 V3000
M  V30 BEGIN CTAB
M  V30 COUNTS 10 10 0 0 0
M  V30 BEGIN ATOM
M  V30 1 O 0 4.62 0 0
M  V30 2 C 1.3337 3.85 0 0
M  V30 3 O 2.6674 4.62 0 0
M  V30 4 C 1.3337 2.31 0 0
M  V30 5 C 2.6674 1.54 0 0
M  V30 6 C 2.6674 -0 0 0
M  V30 7 C 1.3337 -0.77 0 0
M  V30 8 F 1.3337 -2.31 0 0
M  V30 9 C 0 0 0 0
M  V30 10 C 0 1.54 0 0
M  V30 END ATOM
M  V30 BEGIN BOND
M  V30 1 1 1 2
M  V30 2 2 2 3
M  V30 3 1 2 4
M  V30 4 1 4 5
M  V30 5 2 5 6
M  V30 6 1 6 7
M  V30 7 1 7 8
M  V30 8 2 7 9
M  V30 9 1 9 10
M  V30 10 2 4 10
M  V30 END BOND
M  V30 END CTAB
M  END
>  <Catalog ID>
Z57367354

>  <MW>
140.027

>  <MW (desalted)>
140.112

>  <ClogP>
2.126

>  <logS>
-1.8

>  <HBD>
1

>  <HBA>
2

>  <TPSA>
37.3

>  <RotBonds>
1

$$$$

  Mrv2205 11102315382D          

  0  0  0     0  0            999 V3000
M  V30 BEGIN CTAB
M  V30 COUNTS 11 12 0 0 0
M  V30 BEGIN ATOM
M  V30 1 C 5.1978 1.3028 0 0
M  V30 2 C 3.8641 2.0728 0 0
M  V30 3 C 2.5304 1.3028 0 0
M  V30 4 C 1.1967 2.0728 0 0
M  V30 5 N -0.2679 1.5969 0 0
M  V30 6 C -1.1731 2.8428 0 0
M  V30 7 N -0.2679 4.0887 0 0
M  V30 8 C 1.1967 3.6128 0 0
M  V30 9 C 2.5304 4.3828 0 0
M  V30 10 C 3.8641 3.6128 0 0
M  V30 11 C 5.1978 4.3828 0 0
M  V30 END ATOM
M  V30 BEGIN BOND
M  V30 1 1 1 2
M  V30 2 1 2 3
M  V30 3 2 3 4
M  V30 4 1 4 5
M  V30 5 2 5 6
M  V30 6 1 6 7
M  V30 7 1 7 8
M  V30 8 1 4 8
M  V30 9 2 8 9
M  V30 10 1 9 10
M  V30 11 2 2 10
M  V30 12 1 10 11
M  V30 END BOND
M  V30 END CTAB
M  END
>  <Catalog ID>
Z55928828

>  <MW>
146.084

>  <MW (desalted)>
146.189

>  <ClogP>
2.513

>  <logS>
-3

>  <HBD>
1

>  <HBA>
1

>  <TPSA>
28.68

>  <RotBonds>
0

$$$$

  Mrv2205 11102315382D          

  0  0  0     0  0            999 V3000
M  V30 BEGIN CTAB
M  V30 COUNTS 13 13 0 0 0
M  V30 BEGIN ATOM
M  V30 1 C 0 4.62 0 0
M  V30 2 O 1.3337 3.85 0 0
M  V30 3 C 1.3337 2.31 0 0
M  V30 4 C 2.6674 1.54 0 0
M  V30 5 C 2.6674 -0 0 0
M  V30 6 C 1.3337 -0.77 0 0
M  V30 7 C 0 0 0 0
M  V30 8 C 0 1.54 0 0
M  V30 9 O -1.3337 2.31 0 0
M  V30 10 C -1.3337 3.85 0 0
M  V30 11 C 1.3337 -2.31 0 0
M  V30 12 O 2.6674 -3.08 0 0
M  V30 13 O -0 -3.08 0 0
M  V30 END ATOM
M  V30 BEGIN BOND
M  V30 1 1 1 2
M  V30 2 1 2 3
M  V30 3 1 3 4
M  V30 4 2 4 5
M  V30 5 1 5 6
M  V30 6 2 6 7
M  V30 7 1 7 8
M  V30 8 2 3 8
M  V30 9 1 8 9
M  V30 10 1 9 10
M  V30 11 1 6 11
M  V30 12 2 11 12
M  V30 13 1 11 13
M  V30 END BOND
M  V30 END CTAB
M  END
>  <Catalog ID>
Z104478452

>  <MW>
182.058

>  <MW (desalted)>
182.173

>  <ClogP>
1.665

>  <logS>
-1.58

>  <HBD>
1

>  <HBA>
4

>  <TPSA>
55.76

>  <RotBonds>
3

$$$$

  Mrv2205 11102315382D          

  0  0  0     0  0            999 V3000
M  V30 BEGIN CTAB
M  V30 COUNTS 14 15 0 0 0
M  V30 BEGIN ATOM
M  V30 1 O 0 -4.62 0 0
M  V30 2 C 0 -3.08 0 0
M  V30 3 O -1.3337 -2.31 0 0
M  V30 4 C 1.3337 -2.31 0 0
M  V30 5 C 1.3337 -0.77 0 0
M  V30 6 C 2.6674 0 0 0
M  V30 7 C 4.001 -0.77 0 0
M  V30 8 N 5.3347 0 0 0
M  V30 9 C 6.6684 -0.77 0 0
M  V30 10 O 8.0021 -0 0 0
M  V30 11 C 6.6684 -2.31 0 0
M  V30 12 S 5.3347 -3.08 0 0
M  V30 13 C 4.001 -2.31 0 0
M  V30 14 C 2.6674 -3.08 0 0
M  V30 END ATOM
M  V30 BEGIN BOND
M  V30 1 1 1 2
M  V30 2 2 2 3
M  V30 3 1 2 4
M  V30 4 1 4 5
M  V30 5 2 5 6
M  V30 6 1 6 7
M  V30 7 1 7 8
M  V30 8 1 8 9
M  V30 9 2 9 10
M  V30 10 1 9 11
M  V30 11 1 11 12
M  V30 12 1 12 13
M  V30 13 2 7 13
M  V30 14 1 13 14
M  V30 15 2 4 14
M  V30 END BOND
M  V30 END CTAB
M  END
>  <Catalog ID>
Z1508957209

>  <MW>
209.015

>  <MW (desalted)>
209.222

>  <ClogP>
1.334

>  <logS>
-2.5

>  <HBD>
2

>  <HBA>
3

>  <TPSA>
66.4

>  <RotBonds>
1

$$$$

  Mrv2205 11102315382D          

  0  0  0     0  0            999 V3000
M  V30 BEGIN CTAB
M  V30 COUNTS 11 11 0 0 0
M  V30 BEGIN ATOM
M  V30 1 N 1.3337 3.85 0 0
M  V30 2 C 1.3337 2.31 0 0
M  V30 3 C 2.6674 1.54 0 0
M  V30 4 C 2.6674 -0 0 0
M  V30 5 C 1.3337 -0.77 0 0
M  V30 6 C 1.3337 -2.31 0 0
M  V30 7 O 2.6674 -3.08 0 0
M  V30 8 O -0 -3.08 0 0
M  V30 9 C 0 0 0 0
M  V30 10 O -1.3337 -0.77 0 0
M  V30 11 C 0 1.54 0 0
M  V30 END ATOM
M  V30 BEGIN BOND
M  V30 1 1 1 2
M  V30 2 1 2 3
M  V30 3 2 3 4
M  V30 4 1 4 5
M  V30 5 1 5 6
M  V30 6 2 6 7
M  V30 7 1 6 8
M  V30 8 2 5 9
M  V30 9 1 9 10
M  V30 10 1 9 11
M  V30 11 2 2 11
M  V30 END BOND
M  V30 END CTAB
M  END
>  <Catalog ID>
Z90121065

>  <MW>
153.043

>  <MW (desalted)>
153.135

>  <ClogP>
1.056

>  <logS>
-0.95

>  <HBD>
3

>  <HBA>
4

>  <TPSA>
83.55

>  <RotBonds>
1

$$$$

  Mrv2205 11102315382D          

  0  0  0     0  0            999 V3000
M  V30 BEGIN CTAB
M  V30 COUNTS 10 8 0 0 0
M  V30 BEGIN ATOM
M  V30 1 Cl 0 0 0 0
M  V30 2 Cl 3.74 0 0 0
M  V30 3 N -1.0003 -3.08 0 0
M  V30 4 C -1.0003 -4.62 0 0
M  V30 5 C 0.3334 -5.39 0 0
M  V30 6 C 0.3334 -6.93 0 0
M  V30 7 C 1.5793 -7.8352 0 0
M  V30 8 N 1.1034 -9.2998 0 0
M  V30 9 C -0.4366 -9.2998 0 0
M  V30 10 N -0.9125 -7.8352 0 0
M  V30 END ATOM
M  V30 BEGIN BOND
M  V30 1 1 3 4
M  V30 2 1 4 5
M  V30 3 1 5 6
M  V30 4 2 6 7
M  V30 5 1 7 8
M  V30 6 1 8 9
M  V30 7 2 9 10
M  V30 8 1 6 10
M  V30 END BOND
M  V30 END CTAB
M  END
>  <Catalog ID>
Z1267773750

>  <MW>
183.033

>  <MW (desalted)>
111.145

>  <ClogP>
-0.968

>  <logS>
-1.08

>  <HBD>
2

>  <HBA>
2

>  <TPSA>
54.7

>  <RotBonds>
2

$$$$

  Mrv2205 11102315382D          

  0  0  0     0  0            999 V3000
M  V30 BEGIN CTAB
M  V30 COUNTS 9 9 0 0 0
M  V30 BEGIN ATOM
M  V30 1 O 1.3337 3.85 0 0
M  V30 2 C 1.3337 2.31 0 0
M  V30 3 C 2.6674 1.54 0 0
M  V30 4 C 2.6674 -0 0 0
M  V30 5 C 1.3337 -0.77 0 0
M  V30 6 C 1.3337 -2.31 0 0
M  V30 7 N 1.3337 -3.85 0 0
M  V30 8 C 0 0 0 0
M  V30 9 C 0 1.54 0 0
M  V30 END ATOM
M  V30 BEGIN BOND
M  V30 1 1 1 2
M  V30 2 1 2 3
M  V30 3 2 3 4
M  V30 4 1 4 5
M  V30 5 1 5 6
M  V30 6 3 6 7
M  V30 7 2 5 8
M  V30 8 1 8 9
M  V30 9 2 2 9
M  V30 END BOND
M  V30 END CTAB
M  END
>  <Catalog ID>
Z104473840

>  <MW>
119.037

>  <MW (desalted)>
119.121

>  <ClogP>
1.597

>  <logS>
-1.27

>  <HBD>
1

>  <HBA>
2

>  <TPSA>
44.02

>  <RotBonds>
0

$$$$

  Mrv2205 11102315382D          

  0  0  0     0  0            999 V3000
M  V30 BEGIN CTAB
M  V30 COUNTS 12 13 0 0 0
M  V30 BEGIN ATOM
M  V30 1 O 0 -3.08 0 0
M  V30 2 C 1.3337 -2.31 0 0
M  V30 3 C 1.3337 -0.77 0 0
M  V30 4 C 2.6674 0 0 0
M  V30 5 C 4.001 -0.77 0 0
M  V30 6 C 5.3347 0 0 0
M  V30 7 C 6.6684 -0.77 0 0
M  V30 8 C 6.6684 -2.31 0 0
M  V30 9 O 8.0021 -3.08 0 0
M  V30 10 O 5.3347 -3.08 0 0
M  V30 11 C 4.001 -2.31 0 0
M  V30 12 C 2.6674 -3.08 0 0
M  V30 END ATOM
M  V30 BEGIN BOND
M  V30 1 1 1 2
M  V30 2 1 2 3
M  V30 3 2 3 4
M  V30 4 1 4 5
M  V30 5 1 5 6
M  V30 6 2 6 7
M  V30 7 1 7 8
M  V30 8 2 8 9
M  V30 9 1 8 10
M  V30 10 1 10 11
M  V30 11 2 5 11
M  V30 12 1 11 12
M  V30 13 2 2 12
M  V30 END BOND
M  V30 END CTAB
M  END
>  <Catalog ID>
Z57150899

>  <MW>
162.032

>  <MW (desalted)>
162.142

>  <ClogP>
1.623

>  <logS>
-2.16

>  <HBD>
1

>  <HBA>
2

>  <TPSA>
46.53

>  <RotBonds>
0

$$$$

  Mrv2205 11102315382D          

  0  0  0     0  0            999 V3000
M  V30 BEGIN CTAB
M  V30 COUNTS 13 13 0 0 0
M  V30 BEGIN ATOM
M  V30 1 O -1.3337 6.93 0 0
M  V30 2 C 0 6.16 0 0
M  V30 3 O 1.3337 6.93 0 0
M  V30 4 C 0 4.62 0 0
M  V30 5 O 1.3337 3.85 0 0
M  V30 6 C 1.3337 2.31 0 0
M  V30 7 C 2.6674 1.54 0 0
M  V30 8 Cl 4.001 2.31 0 0
M  V30 9 C 2.6674 -0 0 0
M  V30 10 C 1.3337 -0.77 0 0
M  V30 11 C 0 0 0 0
M  V30 12 C 0 1.54 0 0
M  V30 13 Cl -1.3337 2.31 0 0
M  V30 END ATOM
M  V30 BEGIN BOND
M  V30 1 1 1 2
M  V30 2 2 2 3
M  V30 3 1 2 4
M  V30 4 1 4 5
M  V30 5 1 5 6
M  V30 6 1 6 7
M  V30 7 1 7 8
M  V30 8 2 7 9
M  V30 9 1 9 10
M  V30 10 2 10 11
M  V30 11 1 11 12
M  V30 12 2 6 12
M  V30 13 1 12 13
M  V30 END BOND
M  V30 END CTAB
M  END
>  <Catalog ID>
Z56928539

>  <MW>
219.969

>  <MW (desalted)>
221.037

>  <ClogP>
2.505

>  <logS>
-2.99

>  <HBD>
1

>  <HBA>
3

>  <TPSA>
46.53

>  <RotBonds>
3

$$$$

  Mrv2205 11102315382D          

  0  0  0     0  0            999 V3000
M  V30 BEGIN CTAB
M  V30 COUNTS 13 14 0 0 0
M  V30 BEGIN ATOM
M  V30 1 C 0 -3.08 0 0
M  V30 2 C 1.3337 -2.31 0 0
M  V30 3 C 1.3337 -0.77 0 0
M  V30 4 C 2.6674 0 0 0
M  V30 5 C 2.6674 1.54 0 0
M  V30 6 O 4.001 2.31 0 0
M  V30 7 C 4.001 -0.77 0 0
M  V30 8 C 5.3347 0 0 0
M  V30 9 C 6.6684 -0.77 0 0
M  V30 10 C 6.6684 -2.31 0 0
M  V30 11 C 5.3347 -3.08 0 0
M  V30 12 C 4.001 -2.31 0 0
M  V30 13 N 2.6674 -3.08 0 0
M  V30 END ATOM
M  V30 BEGIN BOND
M  V30 1 1 1 2
M  V30 2 1 2 3
M  V30 3 2 3 4
M  V30 4 1 4 5
M  V30 5 1 5 6
M  V30 6 1 4 7
M  V30 7 1 7 8
M  V30 8 2 8 9
M  V30 9 1 9 10
M  V30 10 2 10 11
M  V30 11 1 11 12
M  V30 12 2 7 12
M  V30 13 1 12 13
M  V30 14 2 2 13
M  V30 END BOND
M  V30 END CTAB
M  END
>  <Catalog ID>
Z397587554

>  <MW>
173.084

>  <MW (desalted)>
173.211

>  <ClogP>
1.94

>  <logS>
-1.76

>  <HBD>
1

>  <HBA>
2

>  <TPSA>
33.12

>  <RotBonds>
1

$$$$

  Mrv2205 11102315382D          

  0  0  0     0  0            999 V3000
M  V30 BEGIN CTAB
M  V30 COUNTS 15 16 0 0 0
M  V30 BEGIN ATOM
M  V30 1 O 4.001 -0.77 0 0
M  V30 2 C 4.001 -2.31 0 0
M  V30 3 C 5.3347 -3.08 0 0
M  V30 4 C 5.3347 -4.62 0 0
M  V30 5 C 4.001 -5.39 0 0
M  V30 6 C 2.6674 -4.62 0 0
M  V30 7 C 2.6674 -3.08 0 0
M  V30 8 C 1.3337 -5.39 0 0
M  V30 9 O 1.3337 -6.93 0 0
M  V30 10 N 0 -4.62 0 0
M  V30 11 C -1.3337 -5.39 0 0
M  V30 12 C -2.6674 -4.62 0 0
M  V30 13 O -2.6674 -3.08 0 0
M  V30 14 C -1.3337 -2.31 0 0
M  V30 15 C 0 -3.08 0 0
M  V30 END ATOM
M  V30 BEGIN BOND
M  V30 1 1 1 2
M  V30 2 1 2 3
M  V30 3 2 3 4
M  V30 4 1 4 5
M  V30 5 2 5 6
M  V30 6 1 6 7
M  V30 7 2 2 7
M  V30 8 1 6 8
M  V30 9 2 8 9
M  V30 10 1 8 10
M  V30 11 1 10 11
M  V30 12 1 11 12
M  V30 13 1 12 13
M  V30 14 1 13 14
M  V30 15 1 14 15
M  V30 16 1 10 15
M  V30 END BOND
M  V30 END CTAB
M  END
>  <Catalog ID>
Z31721188

>  <MW>
207.09

>  <MW (desalted)>
207.226

>  <ClogP>
0.646

>  <logS>
-1.779

>  <HBD>
1

>  <HBA>
3

>  <TPSA>
49.77

>  <RotBonds>
1

$$$$

  Mrv2205 11102315382D          

  0  0  0     0  0            999 V3000
M  V30 BEGIN CTAB
M  V30 COUNTS 6 6 0 0 0
M  V30 BEGIN ATOM
M  V30 1 N 1.0598 3.62 0 0
M  V30 2 C 1.0598 2.08 0 0
M  V30 3 N 2.3057 1.1748 0 0
M  V30 4 C 1.8298 -0.2898 0 0
M  V30 5 C 0.2898 -0.2898 0 0
M  V30 6 S -0.1861 1.1748 0 0
M  V30 END ATOM
M  V30 BEGIN BOND
M  V30 1 1 1 2
M  V30 2 2 2 3
M  V30 3 1 3 4
M  V30 4 2 4 5
M  V30 5 1 5 6
M  V30 6 1 2 6
M  V30 END BOND
M  V30 END CTAB
M  END
>  <Catalog ID>
Z104472798

>  <MW>
100.01

>  <MW (desalted)>
100.142

>  <ClogP>
0.229

>  <logS>
-0.8

>  <HBD>
1

>  <HBA>
2

>  <TPSA>
38.91

>  <RotBonds>
0

$$$$

  Mrv2205 11102315382D          

  0  0  0     0  0            999 V3000
M  V30 BEGIN CTAB
M  V30 COUNTS 9 9 0 0 0
M  V30 BEGIN ATOM
M  V30 1 N 1.0598 5.16 0 0
M  V30 2 S 1.0598 3.62 0 0
M  V30 3 O -0.4802 3.62 0 0
M  V30 4 O 2.5998 3.62 0 0
M  V30 5 C 1.0598 2.08 0 0
M  V30 6 C 2.3057 1.1748 0 0
M  V30 7 C 1.8298 -0.2898 0 0
M  V30 8 C 0.2898 -0.2898 0 0
M  V30 9 S -0.1861 1.1748 0 0
M  V30 END ATOM
M  V30 BEGIN BOND
M  V30 1 1 1 2
M  V30 2 2 2 3
M  V30 3 2 2 4
M  V30 4 1 2 5
M  V30 5 2 5 6
M  V30 6 1 6 7
M  V30 7 2 7 8
M  V30 8 1 8 9
M  V30 9 1 5 9
M  V30 END BOND
M  V30 END CTAB
M  END
>  <Catalog ID>
Z45415560

>  <MW>
162.976

>  <MW (desalted)>
163.218

>  <ClogP>
0.179

>  <logS>
-1.62

>  <HBD>
1

>  <HBA>
2

>  <TPSA>
60.16

>  <RotBonds>
1

$$$$

  Mrv2205 11102315382D          

  0  0  0     0  0            999 V3000
M  V30 BEGIN CTAB
M  V30 COUNTS 9 9 0 0 0
M  V30 BEGIN ATOM
M  V30 1 C 0 4.62 0 0
M  V30 2 O 1.3337 3.85 0 0
M  V30 3 C 1.3337 2.31 0 0
M  V30 4 C 2.6674 1.54 0 0
M  V30 5 C 2.6674 -0 0 0
M  V30 6 C 1.3337 -0.77 0 0
M  V30 7 O 1.3337 -2.31 0 0
M  V30 8 C 0 0 0 0
M  V30 9 C 0 1.54 0 0
M  V30 END ATOM
M  V30 BEGIN BOND
M  V30 1 1 1 2
M  V30 2 1 2 3
M  V30 3 1 3 4
M  V30 4 2 4 5
M  V30 5 1 5 6
M  V30 6 1 6 7
M  V30 7 2 6 8
M  V30 8 1 8 9
M  V30 9 2 3 9
M  V30 END BOND
M  V30 END CTAB
M  END
>  <Catalog ID>
Z104474598

>  <MW>
124.052

>  <MW (desalted)>
124.137

>  <ClogP>
1.574

>  <logS>
-0.99

>  <HBD>
1

>  <HBA>
2

>  <TPSA>
29.46

>  <RotBonds>
1

$$$$

  Mrv2205 11102315382D          

  0  0  0     0  0            999 V3000
M  V30 BEGIN CTAB
M  V30 COUNTS 9 9 0 0 0
M  V30 BEGIN ATOM
M  V30 1 N 0 4.62 0 0
M  V30 2 C 1.3337 3.85 0 0
M  V30 3 O 2.6674 4.62 0 0
M  V30 4 C 1.3337 2.31 0 0
M  V30 5 C 2.6674 1.54 0 0
M  V30 6 N 2.6674 -0 0 0
M  V30 7 C 1.3337 -0.77 0 0
M  V30 8 C 0 0 0 0
M  V30 9 N 0 1.54 0 0
M  V30 END ATOM
M  V30 BEGIN BOND
M  V30 1 1 1 2
M  V30 2 2 2 3
M  V30 3 1 2 4
M  V30 4 1 4 5
M  V30 5 2 5 6
M  V30 6 1 6 7
M  V30 7 2 7 8
M  V30 8 1 8 9
M  V30 9 2 4 9
M  V30 END BOND
M  V30 END CTAB
M  END
>  <Catalog ID>
Z33546644

>  <MW>
123.043

>  <MW (desalted)>
123.113

>  <ClogP>
-0.676

>  <logS>
0.47

>  <HBD>
1

>  <HBA>
3

>  <TPSA>
68.87

>  <RotBonds>
1

$$$$

  Mrv2205 11102315382D          

  0  0  0     0  0            999 V3000
M  V30 BEGIN CTAB
M  V30 COUNTS 10 11 0 0 0
M  V30 BEGIN ATOM
M  V30 1 N 6.1207 3.85 0 0
M  V30 2 C 6.1207 2.31 0 0
M  V30 3 C 7.4543 1.54 0 0
M  V30 4 C 7.4543 0 0 0
M  V30 5 C 6.1207 -0.77 0 0
M  V30 6 C 4.787 0 0 0
M  V30 7 N 3.3224 -0.4759 0 0
M  V30 8 C 2.4172 0.77 0 0
M  V30 9 N 3.3224 2.0159 0 0
M  V30 10 C 4.787 1.54 0 0
M  V30 END ATOM
M  V30 BEGIN BOND
M  V30 1 1 1 2
M  V30 2 1 2 3
M  V30 3 2 3 4
M  V30 4 1 4 5
M  V30 5 2 5 6
M  V30 6 1 6 7
M  V30 7 1 7 8
M  V30 8 2 8 9
M  V30 9 1 9 10
M  V30 10 2 2 10
M  V30 11 1 6 10
M  V30 END BOND
M  V30 END CTAB
M  END
>  <Catalog ID>
Z1259162108

>  <MW>
133.064

>  <MW (desalted)>
133.151

>  <ClogP>
1.013

>  <logS>
-1.39

>  <HBD>
2

>  <HBA>
2

>  <TPSA>
54.7

>  <RotBonds>
0

$$$$

  Mrv2205 11102315382D          

  0  0  0     0  0            999 V3000
M  V30 BEGIN CTAB
M  V30 COUNTS 12 13 0 0 0
M  V30 BEGIN ATOM
M  V30 1 O 7.5913 5.9228 0 0
M  V30 2 C 7.5913 4.3828 0 0
M  V30 3 O 8.925 3.6128 0 0
M  V30 4 C 6.2576 3.6128 0 0
M  V30 5 C 6.2576 2.0728 0 0
M  V30 6 C 4.9239 1.3028 0 0
M  V30 7 C 3.5902 2.0728 0 0
M  V30 8 N 2.1256 1.5969 0 0
M  V30 9 C 1.2204 2.8428 0 0
M  V30 10 C 2.1256 4.0887 0 0
M  V30 11 C 3.5902 3.6128 0 0
M  V30 12 C 4.9239 4.3828 0 0
M  V30 END ATOM
M  V30 BEGIN BOND
M  V30 1 1 1 2
M  V30 2 2 2 3
M  V30 3 1 2 4
M  V30 4 1 4 5
M  V30 5 2 5 6
M  V30 6 1 6 7
M  V30 7 1 7 8
M  V30 8 1 8 9
M  V30 9 2 9 10
M  V30 10 1 10 11
M  V30 11 2 7 11
M  V30 12 1 11 12
M  V30 13 2 4 12
M  V30 END BOND
M  V30 END CTAB
M  END
>  <Catalog ID>
Z1118536235

>  <MW>
161.048

>  <MW (desalted)>
161.157

>  <ClogP>
2.067

>  <logS>
-2.41

>  <HBD>
2

>  <HBA>
2

>  <TPSA>
53.09

>  <RotBonds>
1

$$$$

  Mrv2205 11102315382D          

  0  0  0     0  0            999 V3000
M  V30 BEGIN CTAB
M  V30 COUNTS 13 14 0 0 0
M  V30 BEGIN ATOM
M  V30 1 C 1.3337 -0.77 0 0
M  V30 2 C 1.3337 -2.31 0 0
M  V30 3 N 2.5796 -3.2152 0 0
M  V30 4 C 2.1037 -4.6798 0 0
M  V30 5 C 0.5637 -4.6798 0 0
M  V30 6 S 0.0878 -3.2152 0 0
M  V30 7 C 3.0089 -5.9257 0 0
M  V30 8 C 4.5404 -5.7647 0 0
M  V30 9 C 5.4456 -7.0106 0 0
M  V30 10 C 4.8192 -8.4175 0 0
M  V30 11 C 3.2877 -8.5784 0 0
M  V30 12 N 2.6613 -9.9853 0 0
M  V30 13 C 2.3825 -7.3326 0 0
M  V30 END ATOM
M  V30 BEGIN BOND
M  V30 1 1 1 2
M  V30 2 2 2 3
M  V30 3 1 3 4
M  V30 4 2 4 5
M  V30 5 1 5 6
M  V30 6 1 2 6
M  V30 7 1 4 7
M  V30 8 1 7 8
M  V30 9 2 8 9
M  V30 10 1 9 10
M  V30 11 2 10 11
M  V30 12 1 11 12
M  V30 13 1 11 13
M  V30 14 2 7 13
M  V30 END BOND
M  V30 END CTAB
M  END
>  <Catalog ID>
Z57984669

>  <MW>
190.056

>  <MW (desalted)>
190.265

>  <ClogP>
2.05

>  <logS>
-2.32

>  <HBD>
1

>  <HBA>
2

>  <TPSA>
38.91

>  <RotBonds>
1

$$$$

  Mrv2205 11102315382D          

  0  0  0     0  0            999 V3000
M  V30 BEGIN CTAB
M  V30 COUNTS 13 14 0 0 0
M  V30 BEGIN ATOM
M  V30 1 N 0 -4.62 0 0
M  V30 2 C 0 -3.08 0 0
M  V30 3 N -1.3337 -2.31 0 0
M  V30 4 C 1.3337 -2.31 0 0
M  V30 5 C 1.3337 -0.77 0 0
M  V30 6 C 2.6674 0 0 0
M  V30 7 C 4.001 -0.77 0 0
M  V30 8 C 5.3347 0 0 0
M  V30 9 C 6.6684 -0.77 0 0
M  V30 10 C 6.6684 -2.31 0 0
M  V30 11 C 5.3347 -3.08 0 0
M  V30 12 C 4.001 -2.31 0 0
M  V30 13 C 2.6674 -3.08 0 0
M  V30 END ATOM
M  V30 BEGIN BOND
M  V30 1 1 1 2
M  V30 2 2 2 3
M  V30 3 1 2 4
M  V30 4 1 4 5
M  V30 5 2 5 6
M  V30 6 1 6 7
M  V30 7 1 7 8
M  V30 8 2 8 9
M  V30 9 1 9 10
M  V30 10 2 10 11
M  V30 11 1 11 12
M  V30 12 2 7 12
M  V30 13 1 12 13
M  V30 14 2 4 13
M  V30 END BOND
M  V30 END CTAB
M  END
>  <Catalog ID>
Z381356458

>  <MW>
170.084

>  <MW (desalted)>
170.211

>  <ClogP>
1.819

>  <logS>
-3.54

>  <HBD>
2

>  <HBA>
2

>  <TPSA>
49.87

>  <RotBonds>
1

$$$$

  Mrv2205 11102315382D          

  0  0  0     0  0            999 V3000
M  V30 BEGIN CTAB
M  V30 COUNTS 14 16 0 0 0
M  V30 BEGIN ATOM
M  V30 1 O 1.3285 -6.6125 0 0
M  V30 2 C 1.8044 -5.1478 0 0
M  V30 3 N 0.7739 -4.0034 0 0
M  V30 4 C 1.2498 -2.5388 0 0
M  V30 5 N 2.7561 -2.2186 0 0
M  V30 6 C 3.7866 -3.363 0 0
M  V30 7 C 5.3266 -3.363 0 0
M  V30 8 C 6.357 -2.2186 0 0
M  V30 9 C 7.8634 -2.5388 0 0
M  V30 10 C 8.3393 -4.0034 0 0
M  V30 11 C 7.3088 -5.1478 0 0
M  V30 12 C 5.8025 -4.8277 0 0
M  V30 13 O 4.5566 -5.7328 0 0
M  V30 14 C 3.3107 -4.8277 0 0
M  V30 END ATOM
M  V30 BEGIN BOND
M  V30 1 2 1 2
M  V30 2 1 2 3
M  V30 3 1 3 4
M  V30 4 2 4 5
M  V30 5 1 5 6
M  V30 6 1 6 7
M  V30 7 1 7 8
M  V30 8 2 8 9
M  V30 9 1 9 10
M  V30 10 2 10 11
M  V30 11 1 11 12
M  V30 12 2 7 12
M  V30 13 1 12 13
M  V30 14 1 13 14
M  V30 15 1 2 14
M  V30 16 2 6 14
M  V30 END BOND
M  V30 END CTAB
M  END
>  <Catalog ID>
Z62452555

>  <MW>
186.043

>  <MW (desalted)>
186.167

>  <ClogP>
0.865

>  <logS>
-2.76

>  <HBD>
1

>  <HBA>
2

>  <TPSA>
54.6

>  <RotBonds>
0

$$$$

  Mrv2205 11102315382D          

  0  0  0     0  0            999 V3000
M  V30 BEGIN CTAB
M  V30 COUNTS 14 14 0 0 0
M  V30 BEGIN ATOM
M  V30 1 O 0 -4.62 0 0
M  V30 2 C 1.3337 -5.39 0 0
M  V30 3 O 1.3337 -6.93 0 0
M  V30 4 C 2.6674 -4.62 0 0
M  V30 5 N 4.001 -5.39 0 0
M  V30 6 C 5.3347 -4.62 0 0
M  V30 7 O 5.3347 -3.08 0 0
M  V30 8 C 6.6684 -5.39 0 0
M  V30 9 C 8.0021 -4.62 0 0
M  V30 10 C 9.3358 -5.39 0 0
M  V30 11 C 9.3358 -6.93 0 0
M  V30 12 C 8.0021 -7.7 0 0
M  V30 13 O 8.0021 -9.24 0 0
M  V30 14 C 6.6684 -6.93 0 0
M  V30 END ATOM
M  V30 BEGIN BOND
M  V30 1 1 1 2
M  V30 2 2 2 3
M  V30 3 1 2 4
M  V30 4 1 4 5
M  V30 5 1 5 6
M  V30 6 2 6 7
M  V30 7 1 6 8
M  V30 8 1 8 9
M  V30 9 2 9 10
M  V30 10 1 10 11
M  V30 11 2 11 12
M  V30 12 1 12 13
M  V30 13 1 12 14
M  V30 14 2 8 14
M  V30 END BOND
M  V30 END CTAB
M  END
>  <Catalog ID>
Z239129930

>  <MW>
195.053

>  <MW (desalted)>
195.172

>  <ClogP>
0.326

>  <logS>
-1.45

>  <HBD>
3

>  <HBA>
4

>  <TPSA>
86.63

>  <RotBonds>
3

$$$$

  Mrv2205 11102315382D          

  0  0  0     0  0            999 V3000
M  V30 BEGIN CTAB
M  V30 COUNTS 14 15 0 0 0
M  V30 BEGIN ATOM
M  V30 1 O -1.8389 -6.1183 0 0
M  V30 2 C -0.3325 -5.7982 0 0
M  V30 3 O 0.698 -6.9426 0 0
M  V30 4 C 0.1434 -4.3335 0 0
M  V30 5 C 1.6497 -4.0133 0 0
M  V30 6 N 2.1256 -2.5487 0 0
M  V30 7 C 1.2204 -1.3028 0 0
M  V30 8 N 2.1256 -0.0569 0 0
M  V30 9 C 3.5902 -0.5328 0 0
M  V30 10 C 4.9239 0.2372 0 0
M  V30 11 C 6.2576 -0.5328 0 0
M  V30 12 C 6.2576 -2.0728 0 0
M  V30 13 C 4.9239 -2.8428 0 0
M  V30 14 C 3.5902 -2.0728 0 0
M  V30 END ATOM
M  V30 BEGIN BOND
M  V30 1 1 1 2
M  V30 2 2 2 3
M  V30 3 1 2 4
M  V30 4 1 4 5
M  V30 5 1 5 6
M  V30 6 1 6 7
M  V30 7 2 7 8
M  V30 8 1 8 9
M  V30 9 1 9 10
M  V30 10 2 10 11
M  V30 11 1 11 12
M  V30 12 2 12 13
M  V30 13 1 13 14
M  V30 14 1 6 14
M  V30 15 2 9 14
M  V30 END BOND
M  V30 END CTAB
M  END
>  <Catalog ID>
Z53116455

>  <MW>
190.074

>  <MW (desalted)>
190.199

>  <ClogP>
1.19

>  <logS>
-1.36

>  <HBD>
1

>  <HBA>
3

>  <TPSA>
55.12

>  <RotBonds>
3

$$$$

  Mrv2205 11102315382D          

  0  0  0     0  0            999 V3000
M  V30 BEGIN CTAB
M  V30 COUNTS 15 16 0 0 0
M  V30 BEGIN ATOM
M  V30 1 O -2.6296 -2.6365 0 0
M  V30 2 C -1.0896 -2.6365 0 0
M  V30 3 O -0.3196 -3.9702 0 0
M  V30 4 C -0.3196 -1.3028 0 0
M  V30 5 N 1.2204 -1.3028 0 0
M  V30 6 C 2.1256 -0.0569 0 0
M  V30 7 O 1.6497 1.4077 0 0
M  V30 8 C 3.5902 -0.5328 0 0
M  V30 9 C 4.9239 0.2372 0 0
M  V30 10 C 6.2576 -0.5328 0 0
M  V30 11 C 6.2576 -2.0728 0 0
M  V30 12 C 4.9239 -2.8428 0 0
M  V30 13 C 3.5902 -2.0728 0 0
M  V30 14 C 2.1256 -2.5487 0 0
M  V30 15 O 1.6497 -4.0133 0 0
M  V30 END ATOM
M  V30 BEGIN BOND
M  V30 1 1 1 2
M  V30 2 2 2 3
M  V30 3 1 2 4
M  V30 4 1 4 5
M  V30 5 1 5 6
M  V30 6 2 6 7
M  V30 7 1 6 8
M  V30 8 1 8 9
M  V30 9 2 9 10
M  V30 10 1 10 11
M  V30 11 2 11 12
M  V30 12 1 12 13
M  V30 13 2 8 13
M  V30 14 1 13 14
M  V30 15 1 5 14
M  V30 16 2 14 15
M  V30 END BOND
M  V30 END CTAB
M  END
>  <Catalog ID>
Z56175684

>  <MW>
205.038

>  <MW (desalted)>
205.167

>  <ClogP>
0.881

>  <logS>
-2.42

>  <HBD>
1

>  <HBA>
4

>  <TPSA>
74.68

>  <RotBonds>
2

$$$$

  Mrv2205 11102315382D          

  0  0  0     0  0            999 V3000
M  V30 BEGIN CTAB
M  V30 COUNTS 9 9 0 0 0
M  V30 BEGIN ATOM
M  V30 1 O 0 4.62 0 0
M  V30 2 C 1.3337 3.85 0 0
M  V30 3 C 1.3337 2.31 0 0
M  V30 4 C 2.6674 1.54 0 0
M  V30 5 C 2.6674 -0 0 0
M  V30 6 C 1.3337 -0.77 0 0
M  V30 7 Cl 1.3337 -2.31 0 0
M  V30 8 C 0 0 0 0
M  V30 9 C 0 1.54 0 0
M  V30 END ATOM
M  V30 BEGIN BOND
M  V30 1 1 1 2
M  V30 2 1 2 3
M  V30 3 1 3 4
M  V30 4 2 4 5
M  V30 5 1 5 6
M  V30 6 1 6 7
M  V30 7 2 6 8
M  V30 8 1 8 9
M  V30 9 2 3 9
M  V30 END BOND
M  V30 END CTAB
M  END
>  <Catalog ID>
Z104478032

>  <MW>
142.019

>  <MW (desalted)>
142.583

>  <ClogP>
1.817

>  <logS>
-1.69

>  <HBD>
1

>  <HBA>
1

>  <TPSA>
20.23

>  <RotBonds>
1

$$$$

  Mrv2205 11102315382D          

  0  0  0     0  0            999 V3000
M  V30 BEGIN CTAB
M  V30 COUNTS 12 12 0 0 0
M  V30 BEGIN ATOM
M  V30 1 O 0 6.16 0 0
M  V30 2 C 0 4.62 0 0
M  V30 3 O -1.3337 3.85 0 0
M  V30 4 C 1.3337 3.85 0 0
M  V30 5 C 1.3337 2.31 0 0
M  V30 6 C 2.6674 1.54 0 0
M  V30 7 Cl 4.001 2.31 0 0
M  V30 8 C 2.6674 -0 0 0
M  V30 9 C 1.3337 -0.77 0 0
M  V30 10 C 0 0 0 0
M  V30 11 C 0 1.54 0 0
M  V30 12 Cl -1.3337 2.31 0 0
M  V30 END ATOM
M  V30 BEGIN BOND
M  V30 1 1 1 2
M  V30 2 2 2 3
M  V30 3 1 2 4
M  V30 4 1 4 5
M  V30 5 1 5 6
M  V30 6 1 6 7
M  V30 7 2 6 8
M  V30 8 1 8 9
M  V30 9 2 9 10
M  V30 10 1 10 11
M  V30 11 2 5 11
M  V30 12 1 11 12
M  V30 END BOND
M  V30 END CTAB
M  END
>  <Catalog ID>
Z104478552

>  <MW>
203.974

>  <MW (desalted)>
205.038

>  <ClogP>
2.84

>  <logS>
-2.58

>  <HBD>
1

>  <HBA>
2

>  <TPSA>
37.3

>  <RotBonds>
2

$$$$

  Mrv2205 11102315382D          

  0  0  0     0  0            999 V3000
M  V30 BEGIN CTAB
M  V30 COUNTS 12 13 0 0 0
M  V30 BEGIN ATOM
M  V30 1 N 4.787 4.62 0 0
M  V30 2 C 6.1207 3.85 0 0
M  V30 3 O 7.4543 4.62 0 0
M  V30 4 C 6.1207 2.31 0 0
M  V30 5 C 7.4543 1.54 0 0
M  V30 6 C 7.4543 0 0 0
M  V30 7 C 6.1207 -0.77 0 0
M  V30 8 C 4.787 0 0 0
M  V30 9 N 3.3224 -0.4759 0 0
M  V30 10 C 2.4172 0.77 0 0
M  V30 11 C 3.3224 2.0159 0 0
M  V30 12 C 4.787 1.54 0 0
M  V30 END ATOM
M  V30 BEGIN BOND
M  V30 1 1 1 2
M  V30 2 2 2 3
M  V30 3 1 2 4
M  V30 4 1 4 5
M  V30 5 2 5 6
M  V30 6 1 6 7
M  V30 7 2 7 8
M  V30 8 1 8 9
M  V30 9 1 9 10
M  V30 10 2 10 11
M  V30 11 1 11 12
M  V30 12 2 4 12
M  V30 13 1 8 12
M  V30 END BOND
M  V30 END CTAB
M  END
>  <Catalog ID>
Z415653738

>  <MW>
160.064

>  <MW (desalted)>
160.173

>  <ClogP>
0.837

>  <logS>
-2.46

>  <HBD>
2

>  <HBA>
1

>  <TPSA>
58.88

>  <RotBonds>
1

$$$$

  Mrv2205 11102315382D          

  0  0  0     0  0            999 V3000
M  V30 BEGIN CTAB
M  V30 COUNTS 13 13 0 0 0
M  V30 BEGIN ATOM
M  V30 1 C 2.6674 4.62 0 0
M  V30 2 N 1.3337 3.85 0 0
M  V30 3 C 0 4.62 0 0
M  V30 4 C 1.3337 2.31 0 0
M  V30 5 C 2.6674 1.54 0 0
M  V30 6 C 2.6674 -0 0 0
M  V30 7 C 1.3337 -0.77 0 0
M  V30 8 C 0 0 0 0
M  V30 9 C 0 1.54 0 0
M  V30 10 C -1.3337 -0.77 0 0
M  V30 11 O -1.3337 -2.31 0 0
M  V30 12 N -2.6674 0 0 0
M  V30 13 N -4.001 -0.77 0 0
M  V30 END ATOM
M  V30 BEGIN BOND
M  V30 1 1 1 2
M  V30 2 1 2 3
M  V30 3 1 2 4
M  V30 4 1 4 5
M  V30 5 2 5 6
M  V30 6 1 6 7
M  V30 7 2 7 8
M  V30 8 1 8 9
M  V30 9 2 4 9
M  V30 10 1 8 10
M  V30 11 2 10 11
M  V30 12 1 10 12
M  V30 13 1 12 13
M  V30 END BOND
M  V30 END CTAB
M  END
>  <Catalog ID>
Z56858159

>  <MW>
179.106

>  <MW (desalted)>
179.219

>  <ClogP>
0.625

>  <logS>
-1.57

>  <HBD>
2

>  <HBA>
3

>  <TPSA>
58.36

>  <RotBonds>
2

$$$$

  Mrv2205 11102315382D          

  0  0  0     0  0            999 V3000
M  V30 BEGIN CTAB
M  V30 COUNTS 15 16 0 0 0
M  V30 BEGIN ATOM
M  V30 1 C 0.1434 -4.3335 0 0
M  V30 2 C 1.6497 -4.0133 0 0
M  V30 3 C 2.6802 -5.1578 0 0
M  V30 4 N 2.1256 -2.5487 0 0
M  V30 5 C 1.2204 -1.3028 0 0
M  V30 6 N 2.1256 -0.0569 0 0
M  V30 7 C 3.5902 -0.5328 0 0
M  V30 8 C 4.9239 0.2372 0 0
M  V30 9 C 6.2576 -0.5328 0 0
M  V30 10 C 6.2576 -2.0728 0 0
M  V30 11 C 4.9239 -2.8428 0 0
M  V30 12 C 3.5902 -2.0728 0 0
M  V30 13 C 7.5913 0.2372 0 0
M  V30 14 O 7.5913 1.7772 0 0
M  V30 15 O 8.925 -0.5328 0 0
M  V30 END ATOM
M  V30 BEGIN BOND
M  V30 1 1 1 2
M  V30 2 1 2 3
M  V30 3 1 2 4
M  V30 4 1 4 5
M  V30 5 2 5 6
M  V30 6 1 6 7
M  V30 7 1 7 8
M  V30 8 2 8 9
M  V30 9 1 9 10
M  V30 10 2 10 11
M  V30 11 1 11 12
M  V30 12 1 4 12
M  V30 13 2 7 12
M  V30 14 1 9 13
M  V30 15 2 13 14
M  V30 16 1 13 15
M  V30 END BOND
M  V30 END CTAB
M  END
>  <Catalog ID>
Z431983770

>  <MW>
204.09

>  <MW (desalted)>
204.225

>  <ClogP>
2.437

>  <logS>
-1.89

>  <HBD>
1

>  <HBA>
3

>  <TPSA>
55.12

>  <RotBonds>
2

$$$$

  Mrv2205 11102315382D          

  0  0  0     0  0            999 V3000
M  V30 BEGIN CTAB
M  V30 COUNTS 17 19 0 0 0
M  V30 BEGIN ATOM
M  V30 1 N 7.5913 4.3828 0 0
M  V30 2 C 6.2576 3.6128 0 0
M  V30 3 C 6.2576 2.0728 0 0
M  V30 4 C 4.9239 1.3028 0 0
M  V30 5 C 3.5902 2.0728 0 0
M  V30 6 N 2.1256 1.5969 0 0
M  V30 7 C 1.2204 2.8428 0 0
M  V30 8 C -0.3196 2.8428 0 0
M  V30 9 C -1.0896 4.1765 0 0
M  V30 10 C -2.6296 4.1765 0 0
M  V30 11 C -3.3996 5.5102 0 0
M  V30 12 C -2.6296 6.8439 0 0
M  V30 13 C -1.0896 6.8439 0 0
M  V30 14 C -0.3196 5.5102 0 0
M  V30 15 O 2.1256 4.0887 0 0
M  V30 16 C 3.5902 3.6128 0 0
M  V30 17 C 4.9239 4.3828 0 0
M  V30 END ATOM
M  V30 BEGIN BOND
M  V30 1 1 1 2
M  V30 2 1 2 3
M  V30 3 2 3 4
M  V30 4 1 4 5
M  V30 5 1 5 6
M  V30 6 2 6 7
M  V30 7 1 7 8
M  V30 8 1 8 9
M  V30 9 1 9 10
M  V30 10 2 10 11
M  V30 11 1 11 12
M  V30 12 2 12 13
M  V30 13 1 13 14
M  V30 14 2 9 14
M  V30 15 1 7 15
M  V30 16 1 15 16
M  V30 17 2 5 16
M  V30 18 1 16 17
M  V30 19 2 2 17
M  V30 END BOND
M  V30 END CTAB
M  END
>  <Catalog ID>
Z361423098

>  <MW>
224.095

>  <MW (desalted)>
224.258

>  <ClogP>
2.7

>  <logS>
-2.64

>  <HBD>
1

>  <HBA>
2

>  <TPSA>
52.05

>  <RotBonds>
2

$$$$

  Mrv2205 11102315382D          

  0  0  0     0  0            999 V3000
M  V30 BEGIN CTAB
M  V30 COUNTS 10 10 0 0 0
M  V30 BEGIN ATOM
M  V30 1 N 1.3337 5.39 0 0
M  V30 2 S 1.3337 3.85 0 0
M  V30 3 O -0.2063 3.85 0 0
M  V30 4 O 2.8737 3.85 0 0
M  V30 5 C 1.3337 2.31 0 0
M  V30 6 C 2.6674 1.54 0 0
M  V30 7 C 2.6674 -0 0 0
M  V30 8 C 1.3337 -0.77 0 0
M  V30 9 C 0 0 0 0
M  V30 10 C 0 1.54 0 0
M  V30 END ATOM
M  V30 BEGIN BOND
M  V30 1 1 1 2
M  V30 2 2 2 3
M  V30 3 2 2 4
M  V30 4 1 2 5
M  V30 5 1 5 6
M  V30 6 2 6 7
M  V30 7 1 7 8
M  V30 8 2 8 9
M  V30 9 1 9 10
M  V30 10 2 5 10
M  V30 END BOND
M  V30 END CTAB
M  END
>  <Catalog ID>
Z45415554

>  <MW>
157.02

>  <MW (desalted)>
157.19

>  <ClogP>
0.305

>  <logS>
-1.33

>  <HBD>
1

>  <HBA>
2

>  <TPSA>
60.16

>  <RotBonds>
1

$$$$

  Mrv2205 11102315382D          

  0  0  0     0  0            999 V3000
M  V30 BEGIN CTAB
M  V30 COUNTS 13 13 0 0 0
M  V30 BEGIN ATOM
M  V30 1 O 2.6674 6.16 0 0
M  V30 2 C 2.6674 4.62 0 0
M  V30 3 O 4.001 3.85 0 0
M  V30 4 C 1.3337 3.85 0 0
M  V30 5 C 1.3337 2.31 0 0
M  V30 6 C 2.6674 1.54 0 0
M  V30 7 C 2.6674 -0 0 0
M  V30 8 C 1.3337 -0.77 0 0
M  V30 9 C 0 0 0 0
M  V30 10 C 0 1.54 0 0
M  V30 11 C -1.3337 2.31 0 0
M  V30 12 O -1.3337 3.85 0 0
M  V30 13 O -2.6674 1.54 0 0
M  V30 END ATOM
M  V30 BEGIN BOND
M  V30 1 1 1 2
M  V30 2 2 2 3
M  V30 3 1 2 4
M  V30 4 1 4 5
M  V30 5 1 5 6
M  V30 6 2 6 7
M  V30 7 1 7 8
M  V30 8 2 8 9
M  V30 9 1 9 10
M  V30 10 2 5 10
M  V30 11 1 10 11
M  V30 12 2 11 12
M  V30 13 1 11 13
M  V30 END BOND
M  V30 END CTAB
M  END
>  <Catalog ID>
Z104474214

>  <MW>
180.042

>  <MW (desalted)>
180.157

>  <ClogP>
0.857

>  <logS>
-1.2

>  <HBD>
2

>  <HBA>
4

>  <TPSA>
74.6

>  <RotBonds>
3

$$$$

  Mrv2205 11102315382D          

  0  0  0     0  0            999 V3000
M  V30 BEGIN CTAB
M  V30 COUNTS 13 14 0 0 0
M  V30 BEGIN ATOM
M  V30 1 N -1.8596 -1.3028 0 0
M  V30 2 S -0.3196 -1.3028 0 0
M  V30 3 O -0.3196 -2.8428 0 0
M  V30 4 O -0.3196 0.2372 0 0
M  V30 5 C 1.2204 -1.3028 0 0
M  V30 6 C 2.1256 -0.0569 0 0
M  V30 7 C 3.5902 -0.5328 0 0
M  V30 8 C 4.9239 0.2372 0 0
M  V30 9 C 6.2576 -0.5328 0 0
M  V30 10 C 6.2576 -2.0728 0 0
M  V30 11 C 4.9239 -2.8428 0 0
M  V30 12 C 3.5902 -2.0728 0 0
M  V30 13 O 2.1256 -2.5487 0 0
M  V30 END ATOM
M  V30 BEGIN BOND
M  V30 1 1 1 2
M  V30 2 2 2 3
M  V30 3 2 2 4
M  V30 4 1 2 5
M  V30 5 2 5 6
M  V30 6 1 6 7
M  V30 7 1 7 8
M  V30 8 2 8 9
M  V30 9 1 9 10
M  V30 10 2 10 11
M  V30 11 1 11 12
M  V30 12 2 7 12
M  V30 13 1 12 13
M  V30 14 1 5 13
M  V30 END BOND
M  V30 END CTAB
M  END
>  <Catalog ID>
Z1378432729

>  <MW>
197.015

>  <MW (desalted)>
197.211

>  <ClogP>
0.865

>  <logS>
-2.72

>  <HBD>
1

>  <HBA>
2

>  <TPSA>
73.3

>  <RotBonds>
1

$$$$

  Mrv2205 11102315382D          

  0  0  0     0  0            999 V3000
M  V30 BEGIN CTAB
M  V30 COUNTS 9 9 0 0 0
M  V30 BEGIN ATOM
M  V30 1 O 0 4.62 0 0
M  V30 2 C 1.3337 3.85 0 0
M  V30 3 C 1.3337 2.31 0 0
M  V30 4 C 2.6674 1.54 0 0
M  V30 5 C 2.6674 -0 0 0
M  V30 6 C 1.3337 -0.77 0 0
M  V30 7 C 0 0 0 0
M  V30 8 C 0 1.54 0 0
M  V30 9 Br -1.3337 2.31 0 0
M  V30 END ATOM
M  V30 BEGIN BOND
M  V30 1 1 1 2
M  V30 2 1 2 3
M  V30 3 1 3 4
M  V30 4 2 4 5
M  V30 5 1 5 6
M  V30 6 2 6 7
M  V30 7 1 7 8
M  V30 8 2 3 8
M  V30 9 1 8 9
M  V30 END BOND
M  V30 END CTAB
M  END
>  <Catalog ID>
Z335245004

>  <MW>
185.968

>  <MW (desalted)>
187.034

>  <ClogP>
1.967

>  <logS>
-2.07

>  <HBD>
1

>  <HBA>
1

>  <TPSA>
20.23

>  <RotBonds>
1

$$$$

  Mrv2205 11102315382D          

  0  0  0     0  0            999 V3000
M  V30 BEGIN CTAB
M  V30 COUNTS 13 14 0 0 0
M  V30 BEGIN ATOM
M  V30 1 O -2.6296 -2.6365 0 0
M  V30 2 C -1.0896 -2.6365 0 0
M  V30 3 O -0.3196 -3.9702 0 0
M  V30 4 C -0.3196 -1.3028 0 0
M  V30 5 C 1.2204 -1.3028 0 0
M  V30 6 C 2.1256 -0.0569 0 0
M  V30 7 C 3.5902 -0.5328 0 0
M  V30 8 C 4.9239 0.2372 0 0
M  V30 9 C 6.2576 -0.5328 0 0
M  V30 10 C 6.2576 -2.0728 0 0
M  V30 11 C 4.9239 -2.8428 0 0
M  V30 12 C 3.5902 -2.0728 0 0
M  V30 13 S 2.1256 -2.5487 0 0
M  V30 END ATOM
M  V30 BEGIN BOND
M  V30 1 1 1 2
M  V30 2 2 2 3
M  V30 3 1 2 4
M  V30 4 1 4 5
M  V30 5 2 5 6
M  V30 6 1 6 7
M  V30 7 1 7 8
M  V30 8 2 8 9
M  V30 9 1 9 10
M  V30 10 2 10 11
M  V30 11 1 11 12
M  V30 12 2 7 12
M  V30 13 1 12 13
M  V30 14 1 5 13
M  V30 END BOND
M  V30 END CTAB
M  END
>  <Catalog ID>
Z1198265898

>  <MW>
192.025

>  <MW (desalted)>
192.234

>  <ClogP>
2.444

>  <logS>
-2.76

>  <HBD>
1

>  <HBA>
2

>  <TPSA>
37.3

>  <RotBonds>
2

$$$$

  Mrv2205 11102315382D          

  0  0  0     0  0            999 V3000
M  V30 BEGIN CTAB
M  V30 COUNTS 14 15 0 0 0
M  V30 BEGIN ATOM
M  V30 1 N -1.3337 -6.93 0 0
M  V30 2 C -1.3337 -5.39 0 0
M  V30 3 C 0 -4.62 0 0
M  V30 4 C 0 -3.08 0 0
M  V30 5 N 1.3337 -2.31 0 0
M  V30 6 C 1.3337 -0.77 0 0
M  V30 7 C 2.6674 0 0 0
M  V30 8 C 4.001 -0.77 0 0
M  V30 9 C 5.3347 0 0 0
M  V30 10 C 6.6684 -0.77 0 0
M  V30 11 C 6.6684 -2.31 0 0
M  V30 12 C 5.3347 -3.08 0 0
M  V30 13 C 4.001 -2.31 0 0
M  V30 14 C 2.6674 -3.08 0 0
M  V30 END ATOM
M  V30 BEGIN BOND
M  V30 1 1 1 2
M  V30 2 1 2 3
M  V30 3 1 3 4
M  V30 4 1 4 5
M  V30 5 1 5 6
M  V30 6 1 6 7
M  V30 7 1 7 8
M  V30 8 1 8 9
M  V30 9 2 9 10
M  V30 10 1 10 11
M  V30 11 2 11 12
M  V30 12 1 12 13
M  V30 13 2 8 13
M  V30 14 1 13 14
M  V30 15 1 5 14
M  V30 END BOND
M  V30 END CTAB
M  END
>  <Catalog ID>
Z271005928

>  <MW>
190.147

>  <MW (desalted)>
190.285

>  <ClogP>
1.773

>  <logS>
-0.96

>  <HBD>
1

>  <HBA>
2

>  <TPSA>
29.26

>  <RotBonds>
3

$$$$

  Mrv2205 11102315382D          

  0  0  0     0  0            999 V3000
M  V30 BEGIN CTAB
M  V30 COUNTS 10 10 0 0 0
M  V30 BEGIN ATOM
M  V30 1 C 0 4.62 0 0
M  V30 2 C 1.3337 3.85 0 0
M  V30 3 C 2.6674 4.62 0 0
M  V30 4 C 1.3337 2.31 0 0
M  V30 5 C 2.6674 1.54 0 0
M  V30 6 C 2.6674 -0 0 0
M  V30 7 C 1.3337 -0.77 0 0
M  V30 8 N 1.3337 -2.31 0 0
M  V30 9 C 0 0 0 0
M  V30 10 C 0 1.54 0 0
M  V30 END ATOM
M  V30 BEGIN BOND
M  V30 1 1 1 2
M  V30 2 1 2 3
M  V30 3 1 2 4
M  V30 4 1 4 5
M  V30 5 2 5 6
M  V30 6 1 6 7
M  V30 7 1 7 8
M  V30 8 2 7 9
M  V30 9 1 9 10
M  V30 10 2 4 10
M  V30 END BOND
M  V30 END CTAB
M  END
>  <Catalog ID>
Z104476320

>  <MW>
135.105

>  <MW (desalted)>
135.206

>  <ClogP>
2.342

>  <logS>
-2.66

>  <HBD>
1

>  <HBA>
1

>  <TPSA>
26.02

>  <RotBonds>
1

$$$$

  Mrv2205 11102315382D          

  0  0  0     0  0            999 V3000
M  V30 BEGIN CTAB
M  V30 COUNTS 11 11 0 0 0
M  V30 BEGIN ATOM
M  V30 1 C 1.3337 3.85 0 0
M  V30 2 C 1.3337 2.31 0 0
M  V30 3 C 2.6674 1.54 0 0
M  V30 4 C 2.6674 -0 0 0
M  V30 5 C 1.3337 -0.77 0 0
M  V30 6 O 1.3337 -2.31 0 0
M  V30 7 C 0 0 0 0
M  V30 8 C 0 1.54 0 0
M  V30 9 C -1.3337 -0.77 0 0
M  V30 10 O -2.6674 0 0 0
M  V30 11 O -1.3337 -2.31 0 0
M  V30 END ATOM
M  V30 BEGIN BOND
M  V30 1 1 1 2
M  V30 2 1 2 3
M  V30 3 2 3 4
M  V30 4 1 4 5
M  V30 5 1 5 6
M  V30 6 2 5 7
M  V30 7 1 7 8
M  V30 8 2 2 8
M  V30 9 1 7 9
M  V30 10 2 9 10
M  V30 11 1 9 11
M  V30 END BOND
M  V30 END CTAB
M  END
>  <Catalog ID>
Z147642456

>  <MW>
152.047

>  <MW (desalted)>
152.147

>  <ClogP>
2.686

>  <logS>
-1.63

>  <HBD>
2

>  <HBA>
3

>  <TPSA>
57.53

>  <RotBonds>
1

$$$$

  Mrv2205 11102315382D          

  0  0  0     0  0            999 V3000
M  V30 BEGIN CTAB
M  V30 COUNTS 12 13 0 0 0
M  V30 BEGIN ATOM
M  V30 1 Cl 7.5913 4.3828 0 0
M  V30 2 C 6.2576 3.6128 0 0
M  V30 3 C 6.2576 2.0728 0 0
M  V30 4 C 4.9239 1.3028 0 0
M  V30 5 C 3.5902 2.0728 0 0
M  V30 6 N 2.1256 1.5969 0 0
M  V30 7 C 1.2204 2.8428 0 0
M  V30 8 O -0.3196 2.8428 0 0
M  V30 9 C 2.1256 4.0887 0 0
M  V30 10 O 1.6497 5.5533 0 0
M  V30 11 C 3.5902 3.6128 0 0
M  V30 12 C 4.9239 4.3828 0 0
M  V30 END ATOM
M  V30 BEGIN BOND
M  V30 1 1 1 2
M  V30 2 1 2 3
M  V30 3 2 3 4
M  V30 4 1 4 5
M  V30 5 1 5 6
M  V30 6 1 6 7
M  V30 7 2 7 8
M  V30 8 1 7 9
M  V30 9 2 9 10
M  V30 10 1 9 11
M  V30 11 2 5 11
M  V30 12 1 11 12
M  V30 13 2 2 12
M  V30 END BOND
M  V30 END CTAB
M  END
>  <Catalog ID>
Z56899110

>  <MW>
180.993

>  <MW (desalted)>
181.576

>  <ClogP>
1.541

>  <logS>
-2.82

>  <HBD>
1

>  <HBA>
2

>  <TPSA>
46.17

>  <RotBonds>
0

$$$$

  Mrv2205 11102315382D          

  0  0  0     0  0            999 V3000
M  V30 BEGIN CTAB
M  V30 COUNTS 12 12 0 0 0
M  V30 BEGIN ATOM
M  V30 1 C 1.3337 3.85 0 0
M  V30 2 C 1.3337 2.31 0 0
M  V30 3 C 2.6674 1.54 0 0
M  V30 4 C 2.6674 -0 0 0
M  V30 5 C 4.001 -0.77 0 0
M  V30 6 C 1.3337 -0.77 0 0
M  V30 7 N 1.3337 -2.31 0 0
M  V30 8 C 0 0 0 0
M  V30 9 C 0 1.54 0 0
M  V30 10 C -1.3337 -0.77 0 0
M  V30 11 O -2.6674 0 0 0
M  V30 12 O -1.3337 -2.31 0 0
M  V30 END ATOM
M  V30 BEGIN BOND
M  V30 1 1 1 2
M  V30 2 1 2 3
M  V30 3 2 3 4
M  V30 4 1 4 5
M  V30 5 1 4 6
M  V30 6 1 6 7
M  V30 7 2 6 8
M  V30 8 1 8 9
M  V30 9 2 2 9
M  V30 10 1 8 10
M  V30 11 2 10 11
M  V30 12 1 10 12
M  V30 END BOND
M  V30 END CTAB
M  END
>  <Catalog ID>
Z362758732

>  <MW>
165.079

>  <MW (desalted)>
165.189

>  <ClogP>
2.156

>  <logS>
-2.14

>  <HBD>
2

>  <HBA>
3

>  <TPSA>
63.32

>  <RotBonds>
1

$$$$

  Mrv2205 11102315382D          

  0  0  0     0  0            999 V3000
M  V30 BEGIN CTAB
M  V30 COUNTS 14 15 0 0 0
M  V30 BEGIN ATOM
M  V30 1 O -0.3325 -5.7982 0 0
M  V30 2 C 0.1434 -4.3335 0 0
M  V30 3 O -0.8871 -3.1891 0 0
M  V30 4 C 1.6497 -4.0133 0 0
M  V30 5 C 2.1256 -2.5487 0 0
M  V30 6 C 1.2204 -1.3028 0 0
M  V30 7 N 2.1256 -0.0569 0 0
M  V30 8 C 3.5902 -0.5328 0 0
M  V30 9 C 4.9239 0.2372 0 0
M  V30 10 C 6.2576 -0.5328 0 0
M  V30 11 C 6.2576 -2.0728 0 0
M  V30 12 Br 7.5913 -2.8428 0 0
M  V30 13 C 4.9239 -2.8428 0 0
M  V30 14 C 3.5902 -2.0728 0 0
M  V30 END ATOM
M  V30 BEGIN BOND
M  V30 1 1 1 2
M  V30 2 2 2 3
M  V30 3 1 2 4
M  V30 4 1 4 5
M  V30 5 2 5 6
M  V30 6 1 6 7
M  V30 7 1 7 8
M  V30 8 1 8 9
M  V30 9 2 9 10
M  V30 10 1 10 11
M  V30 11 1 11 12
M  V30 12 2 11 13
M  V30 13 1 13 14
M  V30 14 1 5 14
M  V30 15 2 8 14
M  V30 END BOND
M  V30 END CTAB
M  END
>  <Catalog ID>
Z596250880

>  <MW>
252.974

>  <MW (desalted)>
254.08

>  <ClogP>
2.435

>  <logS>
-2.98

>  <HBD>
2

>  <HBA>
2

>  <TPSA>
53.09

>  <RotBonds>
2

$$$$

  Mrv2205 11102315382D          

  0  0  0     0  0            999 V3000
M  V30 BEGIN CTAB
M  V30 COUNTS 9 9 0 0 0
M  V30 BEGIN ATOM
M  V30 1 O 1.3337 3.85 0 0
M  V30 2 C 1.3337 2.31 0 0
M  V30 3 C 2.6674 1.54 0 0
M  V30 4 F 4.001 2.31 0 0
M  V30 5 C 2.6674 -0 0 0
M  V30 6 C 1.3337 -0.77 0 0
M  V30 7 C 0 0 0 0
M  V30 8 C 0 1.54 0 0
M  V30 9 F -1.3337 2.31 0 0
M  V30 END ATOM
M  V30 BEGIN BOND
M  V30 1 1 1 2
M  V30 2 1 2 3
M  V30 3 1 3 4
M  V30 4 2 3 5
M  V30 5 1 5 6
M  V30 6 2 6 7
M  V30 7 1 7 8
M  V30 8 2 2 8
M  V30 9 1 8 9
M  V30 END BOND
M  V30 END CTAB
M  END
>  <Catalog ID>
Z147646794

>  <MW>
130.023

>  <MW (desalted)>
130.092

>  <ClogP>
1.762

>  <logS>
-1.55

>  <HBD>
1

>  <HBA>
1

>  <TPSA>
20.23

>  <RotBonds>
0

$$$$

  Mrv2205 11102315382D          

  0  0  0     0  0            999 V3000
M  V30 BEGIN CTAB
M  V30 COUNTS 11 11 0 0 0
M  V30 BEGIN ATOM
M  V30 1 N 1.3337 5.39 0 0
M  V30 2 S 1.3337 3.85 0 0
M  V30 3 O -0.2063 3.85 0 0
M  V30 4 O 2.8737 3.85 0 0
M  V30 5 C 1.3337 2.31 0 0
M  V30 6 C 2.6674 1.54 0 0
M  V30 7 C 2.6674 -0 0 0
M  V30 8 C 1.3337 -0.77 0 0
M  V30 9 F 1.3337 -2.31 0 0
M  V30 10 C 0 0 0 0
M  V30 11 C 0 1.54 0 0
M  V30 END ATOM
M  V30 BEGIN BOND
M  V30 1 1 1 2
M  V30 2 2 2 3
M  V30 3 2 2 4
M  V30 4 1 2 5
M  V30 5 1 5 6
M  V30 6 2 6 7
M  V30 7 1 7 8
M  V30 8 1 8 9
M  V30 9 2 8 10
M  V30 10 1 10 11
M  V30 11 2 5 11
M  V30 END BOND
M  V30 END CTAB
M  END
>  <Catalog ID>
Z45415567

>  <MW>
175.01

>  <MW (desalted)>
175.181

>  <ClogP>
0.694

>  <logS>
-1.62

>  <HBD>
1

>  <HBA>
2

>  <TPSA>
60.16

>  <RotBonds>
1

$$$$

  Mrv2205 11102315382D          

  0  0  0     0  0            999 V3000
M  V30 BEGIN CTAB
M  V30 COUNTS 11 11 0 0 0
M  V30 BEGIN ATOM
M  V30 1 C -1.3337 6.93 0 0
M  V30 2 C 0 6.16 0 0
M  V30 3 C 0 4.62 0 0
M  V30 4 C 1.3337 3.85 0 0
M  V30 5 O 2.6674 4.62 0 0
M  V30 6 C 1.3337 2.31 0 0
M  V30 7 C 2.6674 1.54 0 0
M  V30 8 C 2.6674 -0 0 0
M  V30 9 C 1.3337 -0.77 0 0
M  V30 10 N 0 0 0 0
M  V30 11 C 0 1.54 0 0
M  V30 END ATOM
M  V30 BEGIN BOND
M  V30 1 1 1 2
M  V30 2 1 2 3
M  V30 3 1 3 4
M  V30 4 2 4 5
M  V30 5 1 4 6
M  V30 6 1 6 7
M  V30 7 2 7 8
M  V30 8 1 8 9
M  V30 9 2 9 10
M  V30 10 1 10 11
M  V30 11 2 6 11
M  V30 END BOND
M  V30 END CTAB
M  END
>  <Catalog ID>
Z513733856

>  <MW>
149.084

>  <MW (desalted)>
149.19

>  <ClogP>
1.538

>  <logS>
-1.5

>  <HBD>
0

>  <HBA>
2

>  <TPSA>
29.96

>  <RotBonds>
3

$$$$

  Mrv2205 11102315382D          

  0  0  0     0  0            999 V3000
M  V30 BEGIN CTAB
M  V30 COUNTS 12 13 0 0 0
M  V30 BEGIN ATOM
M  V30 1 O 1.6497 -4.0133 0 0
M  V30 2 C 2.1256 -2.5487 0 0
M  V30 3 N 1.2204 -1.3028 0 0
M  V30 4 S 2.1256 -0.0569 0 0
M  V30 5 O 0.7919 0.7131 0 0
M  V30 6 O 2.752 1.3499 0 0
M  V30 7 C 3.5902 -0.5328 0 0
M  V30 8 C 4.9239 0.2372 0 0
M  V30 9 C 6.2576 -0.5328 0 0
M  V30 10 C 6.2576 -2.0728 0 0
M  V30 11 C 4.9239 -2.8428 0 0
M  V30 12 C 3.5902 -2.0728 0 0
M  V30 END ATOM
M  V30 BEGIN BOND
M  V30 1 2 1 2
M  V30 2 1 2 3
M  V30 3 1 3 4
M  V30 4 2 4 5
M  V30 5 2 4 6
M  V30 6 1 4 7
M  V30 7 1 7 8
M  V30 8 2 8 9
M  V30 9 1 9 10
M  V30 10 2 10 11
M  V30 11 1 11 12
M  V30 12 1 2 12
M  V30 13 2 7 12
M  V30 END BOND
M  V30 END CTAB
M  END
>  <Catalog ID>
Z256708526

>  <MW>
182.999

>  <MW (desalted)>
183.185

>  <ClogP>
0.718

>  <logS>
-1.77

>  <HBD>
1

>  <HBA>
3

>  <TPSA>
63.24

>  <RotBonds>
0

$$$$

  Mrv2205 11102315382D          

  0  0  0     0  0            999 V3000
M  V30 BEGIN CTAB
M  V30 COUNTS 12 13 0 0 0
M  V30 BEGIN ATOM
M  V30 1 C 0.1434 -4.3335 0 0
M  V30 2 C 1.6497 -4.0133 0 0
M  V30 3 N 2.1256 -2.5487 0 0
M  V30 4 C 1.2204 -1.3028 0 0
M  V30 5 O -0.3196 -1.3028 0 0
M  V30 6 N 2.1256 -0.0569 0 0
M  V30 7 C 3.5902 -0.5328 0 0
M  V30 8 C 4.9239 0.2372 0 0
M  V30 9 C 6.2576 -0.5328 0 0
M  V30 10 C 6.2576 -2.0728 0 0
M  V30 11 C 4.9239 -2.8428 0 0
M  V30 12 C 3.5902 -2.0728 0 0
M  V30 END ATOM
M  V30 BEGIN BOND
M  V30 1 1 1 2
M  V30 2 1 2 3
M  V30 3 1 3 4
M  V30 4 2 4 5
M  V30 5 1 4 6
M  V30 6 1 6 7
M  V30 7 1 7 8
M  V30 8 2 8 9
M  V30 9 1 9 10
M  V30 10 2 10 11
M  V30 11 1 11 12
M  V30 12 1 3 12
M  V30 13 2 7 12
M  V30 END BOND
M  V30 END CTAB
M  END
>  <Catalog ID>
Z57114989

>  <MW>
162.079

>  <MW (desalted)>
162.189

>  <ClogP>
2.143

>  <logS>
-2.17

>  <HBD>
1

>  <HBA>
1

>  <TPSA>
32.34

>  <RotBonds>
1

$$$$

  Mrv2205 11102315382D          

  0  0  0     0  0            999 V3000
M  V30 BEGIN CTAB
M  V30 COUNTS 9 9 0 0 0
M  V30 BEGIN ATOM
M  V30 1 N 0.0294 3.2244 0 0
M  V30 2 C 1.0598 2.08 0 0
M  V30 3 C 2.3057 1.1748 0 0
M  V30 4 C 1.8298 -0.2898 0 0
M  V30 5 C 0.2898 -0.2898 0 0
M  V30 6 C -0.1861 1.1748 0 0
M  V30 7 C 2.0903 3.2244 0 0
M  V30 8 O 1.6144 4.6891 0 0
M  V30 9 O 3.5966 2.9043 0 0
M  V30 END ATOM
M  V30 BEGIN BOND
M  V30 1 1 1 2
M  V30 2 1 2 3
M  V30 3 1 3 4
M  V30 4 1 4 5
M  V30 5 1 5 6
M  V30 6 1 2 6
M  V30 7 1 2 7
M  V30 8 2 7 8
M  V30 9 1 7 9
M  V30 END BOND
M  V30 END CTAB
M  END
>  <Catalog ID>
Z234896477

>  <MW>
129.079

>  <MW (desalted)>
129.157

>  <ClogP>
-2.254

>  <logS>
-0.7

>  <HBD>
2

>  <HBA>
3

>  <TPSA>
63.32

>  <RotBonds>
1

$$$$

  Mrv2205 11102315382D          

  0  0  0     0  0            999 V3000
M  V30 BEGIN CTAB
M  V30 COUNTS 10 10 0 0 0
M  V30 BEGIN ATOM
M  V30 1 C 0 4.62 0 0
M  V30 2 O 1.3337 3.85 0 0
M  V30 3 C 1.3337 2.31 0 0
M  V30 4 C 2.6674 1.54 0 0
M  V30 5 C 2.6674 -0 0 0
M  V30 6 C 1.3337 -0.77 0 0
M  V30 7 C 1.3337 -2.31 0 0
M  V30 8 C 0 0 0 0
M  V30 9 C 0 1.54 0 0
M  V30 10 N -1.3337 2.31 0 0
M  V30 END ATOM
M  V30 BEGIN BOND
M  V30 1 1 1 2
M  V30 2 1 2 3
M  V30 3 1 3 4
M  V30 4 2 4 5
M  V30 5 1 5 6
M  V30 6 1 6 7
M  V30 7 2 6 8
M  V30 8 1 8 9
M  V30 9 2 3 9
M  V30 10 1 9 10
M  V30 END BOND
M  V30 END CTAB
M  END
>  <Catalog ID>
Z104477476

>  <MW>
137.084

>  <MW (desalted)>
137.179

>  <ClogP>
1.683

>  <logS>
-1.73

>  <HBD>
1

>  <HBA>
2

>  <TPSA>
35.25

>  <RotBonds>
1

$$$$

  Mrv2205 11102315382D          

  0  0  0     0  0            999 V3000
M  V30 BEGIN CTAB
M  V30 COUNTS 10 11 0 0 0
M  V30 BEGIN ATOM
M  V30 1 O 7.5913 4.3828 0 0
M  V30 2 C 6.2576 3.6128 0 0
M  V30 3 C 6.2576 2.0728 0 0
M  V30 4 C 4.9239 1.3028 0 0
M  V30 5 C 3.5902 2.0728 0 0
M  V30 6 O 2.1256 1.5969 0 0
M  V30 7 C 1.2204 2.8428 0 0
M  V30 8 O 2.1256 4.0887 0 0
M  V30 9 C 3.5902 3.6128 0 0
M  V30 10 C 4.9239 4.3828 0 0
M  V30 END ATOM
M  V30 BEGIN BOND
M  V30 1 1 1 2
M  V30 2 1 2 3
M  V30 3 2 3 4
M  V30 4 1 4 5
M  V30 5 1 5 6
M  V30 6 1 6 7
M  V30 7 1 7 8
M  V30 8 1 8 9
M  V30 9 2 5 9
M  V30 10 1 9 10
M  V30 11 2 2 10
M  V30 END BOND
M  V30 END CTAB
M  END
>  <Catalog ID>
Z104473678

>  <MW>
138.032

>  <MW (desalted)>
138.121

>  <ClogP>
1.564

>  <logS>
-1.57

>  <HBD>
1

>  <HBA>
3

>  <TPSA>
38.69

>  <RotBonds>
0

$$$$

  Mrv2205 11102315382D          

  0  0  0     0  0            999 V3000
M  V30 BEGIN CTAB
M  V30 COUNTS 11 12 0 0 0
M  V30 BEGIN ATOM
M  V30 1 O -1.0896 -2.6365 0 0
M  V30 2 C -0.3196 -1.3028 0 0
M  V30 3 C 1.2204 -1.3028 0 0
M  V30 4 N 2.1256 -0.0569 0 0
M  V30 5 C 3.5902 -0.5328 0 0
M  V30 6 C 4.9239 0.2372 0 0
M  V30 7 C 6.2576 -0.5328 0 0
M  V30 8 C 6.2576 -2.0728 0 0
M  V30 9 C 4.9239 -2.8428 0 0
M  V30 10 C 3.5902 -2.0728 0 0
M  V30 11 N 2.1256 -2.5487 0 0
M  V30 END ATOM
M  V30 BEGIN BOND
M  V30 1 1 1 2
M  V30 2 1 2 3
M  V30 3 2 3 4
M  V30 4 1 4 5
M  V30 5 1 5 6
M  V30 6 2 6 7
M  V30 7 1 7 8
M  V30 8 2 8 9
M  V30 9 1 9 10
M  V30 10 2 5 10
M  V30 11 1 10 11
M  V30 12 1 3 11
M  V30 END BOND
M  V30 END CTAB
M  END
>  <Catalog ID>
Z56791635

>  <MW>
148.064

>  <MW (desalted)>
148.162

>  <ClogP>
0.527

>  <logS>
-1.31

>  <HBD>
2

>  <HBA>
2

>  <TPSA>
48.91

>  <RotBonds>
1

$$$$

  Mrv2205 11102315382D          

  0  0  0     0  0            999 V3000
M  V30 BEGIN CTAB
M  V30 COUNTS 11 11 0 0 0
M  V30 BEGIN ATOM
M  V30 1 O -1.3337 6.93 0 0
M  V30 2 C 0 6.16 0 0
M  V30 3 O 1.3337 6.93 0 0
M  V30 4 C 0 4.62 0 0
M  V30 5 C 1.3337 3.85 0 0
M  V30 6 C 1.3337 2.31 0 0
M  V30 7 C 2.6674 1.54 0 0
M  V30 8 C 2.6674 -0 0 0
M  V30 9 C 1.3337 -0.77 0 0
M  V30 10 C 0 0 0 0
M  V30 11 C 0 1.54 0 0
M  V30 END ATOM
M  V30 BEGIN BOND
M  V30 1 1 1 2
M  V30 2 2 2 3
M  V30 3 1 2 4
M  V30 4 1 4 5
M  V30 5 1 5 6
M  V30 6 1 6 7
M  V30 7 2 7 8
M  V30 8 1 8 9
M  V30 9 2 9 10
M  V30 10 1 10 11
M  V30 11 2 6 11
M  V30 END BOND
M  V30 END CTAB
M  END
>  <Catalog ID>
Z57127332

>  <MW>
150.068

>  <MW (desalted)>
150.175

>  <ClogP>
1.903

>  <logS>
-1.34

>  <HBD>
1

>  <HBA>
2

>  <TPSA>
37.3

>  <RotBonds>
3

$$$$

  Mrv2205 11102315382D          

  0  0  0     0  0            999 V3000
M  V30 BEGIN CTAB
M  V30 COUNTS 11 12 0 0 0
M  V30 BEGIN ATOM
M  V30 1 O 2.6674 -4.62 0 0
M  V30 2 C 2.6674 -3.08 0 0
M  V30 3 C 1.3337 -2.31 0 0
M  V30 4 C 1.3337 -0.77 0 0
M  V30 5 N 2.6674 0 0 0
M  V30 6 C 4.001 -0.77 0 0
M  V30 7 C 5.3347 0 0 0
M  V30 8 C 6.6684 -0.77 0 0
M  V30 9 C 6.6684 -2.31 0 0
M  V30 10 C 5.3347 -3.08 0 0
M  V30 11 C 4.001 -2.31 0 0
M  V30 END ATOM
M  V30 BEGIN BOND
M  V30 1 1 1 2
M  V30 2 1 2 3
M  V30 3 2 3 4
M  V30 4 1 4 5
M  V30 5 2 5 6
M  V30 6 1 6 7
M  V30 7 2 7 8
M  V30 8 1 8 9
M  V30 9 2 9 10
M  V30 10 1 10 11
M  V30 11 2 2 11
M  V30 12 1 6 11
M  V30 END BOND
M  V30 END CTAB
M  END
>  <Catalog ID>
Z818727120

>  <MW>
145.053

>  <MW (desalted)>
145.158

>  <ClogP>
2.316

>  <logS>
-1.62

>  <HBD>
1

>  <HBA>
2

>  <TPSA>
33.12

>  <RotBonds>
0

$$$$

  Mrv2205 11102315382D          

  0  0  0     0  0            999 V3000
M  V30 BEGIN CTAB
M  V30 COUNTS 11 11 0 0 0
M  V30 BEGIN ATOM
M  V30 1 O 0 6.16 0 0
M  V30 2 C 0 4.62 0 0
M  V30 3 O -1.3337 3.85 0 0
M  V30 4 C 1.3337 3.85 0 0
M  V30 5 C 1.3337 2.31 0 0
M  V30 6 C 2.6674 1.54 0 0
M  V30 7 C 2.6674 -0 0 0
M  V30 8 C 1.3337 -0.77 0 0
M  V30 9 C 0 0 0 0
M  V30 10 O -1.3337 -0.77 0 0
M  V30 11 C 0 1.54 0 0
M  V30 END ATOM
M  V30 BEGIN BOND
M  V30 1 1 1 2
M  V30 2 2 2 3
M  V30 3 1 2 4
M  V30 4 1 4 5
M  V30 5 1 5 6
M  V30 6 2 6 7
M  V30 7 1 7 8
M  V30 8 2 8 9
M  V30 9 1 9 10
M  V30 10 1 9 11
M  V30 11 2 5 11
M  V30 END BOND
M  V30 END CTAB
M  END
>  <Catalog ID>
Z816000338

>  <MW>
152.047

>  <MW (desalted)>
152.147

>  <ClogP>
0.747

>  <logS>
-0.66

>  <HBD>
2

>  <HBA>
3

>  <TPSA>
57.53

>  <RotBonds>
2

$$$$

  Mrv2205 11102315382D          

  0  0  0     0  0            999 V3000
M  V30 BEGIN CTAB
M  V30 COUNTS 11 12 0 0 0
M  V30 BEGIN ATOM
M  V30 1 C 7.5913 4.3828 0 0
M  V30 2 N 6.2576 3.6128 0 0
M  V30 3 C 6.2576 2.0728 0 0
M  V30 4 C 4.9239 1.3028 0 0
M  V30 5 C 3.5902 2.0728 0 0
M  V30 6 C 2.1256 1.5969 0 0
M  V30 7 C 1.2204 2.8428 0 0
M  V30 8 N 2.1256 4.0887 0 0
M  V30 9 C 3.5902 3.6128 0 0
M  V30 10 C 4.9239 4.3828 0 0
M  V30 11 O 4.9239 5.9228 0 0
M  V30 END ATOM
M  V30 BEGIN BOND
M  V30 1 1 1 2
M  V30 2 1 2 3
M  V30 3 2 3 4
M  V30 4 1 4 5
M  V30 5 1 5 6
M  V30 6 2 6 7
M  V30 7 1 7 8
M  V30 8 1 8 9
M  V30 9 2 5 9
M  V30 10 1 9 10
M  V30 11 1 2 10
M  V30 12 2 10 11
M  V30 END BOND
M  V30 END CTAB
M  END
>  <Catalog ID>
Z1203734446

>  <MW>
148.064

>  <MW (desalted)>
148.162

>  <ClogP>
0.204

>  <logS>
-0.96

>  <HBD>
1

>  <HBA>
1

>  <TPSA>
36.1

>  <RotBonds>
0

$$$$

  Mrv2205 11102315382D          

  0  0  0     0  0            999 V3000
M  V30 BEGIN CTAB
M  V30 COUNTS 13 13 0 0 0
M  V30 BEGIN ATOM
M  V30 1 C 2.6674 4.62 0 0
M  V30 2 O 1.3337 3.85 0 0
M  V30 3 C 1.3337 2.31 0 0
M  V30 4 C 2.6674 1.54 0 0
M  V30 5 C 2.6674 -0 0 0
M  V30 6 C 1.3337 -0.77 0 0
M  V30 7 C 0 0 0 0
M  V30 8 O -1.3337 -0.77 0 0
M  V30 9 C -1.3337 -2.31 0 0
M  V30 10 C 0 1.54 0 0
M  V30 11 C -1.3337 2.31 0 0
M  V30 12 O -1.3337 3.85 0 0
M  V30 13 O -2.6674 1.54 0 0
M  V30 END ATOM
M  V30 BEGIN BOND
M  V30 1 1 1 2
M  V30 2 1 2 3
M  V30 3 1 3 4
M  V30 4 2 4 5
M  V30 5 1 5 6
M  V30 6 2 6 7
M  V30 7 1 7 8
M  V30 8 1 8 9
M  V30 9 1 7 10
M  V30 10 2 3 10
M  V30 11 1 10 11
M  V30 12 2 11 12
M  V30 13 1 11 13
M  V30 END BOND
M  V30 END CTAB
M  END
>  <Catalog ID>
Z57915361

>  <MW>
182.058

>  <MW (desalted)>
182.173

>  <ClogP>
1.155

>  <logS>
-1.58

>  <HBD>
1

>  <HBA>
4

>  <TPSA>
55.76

>  <RotBonds>
3

$$$$

  Mrv2205 11102315382D          

  0  0  0     0  0            999 V3000
M  V30 BEGIN CTAB
M  V30 COUNTS 13 14 0 0 0
M  V30 BEGIN ATOM
M  V30 1 O 0.1434 -4.3335 0 0
M  V30 2 C 1.6497 -4.0133 0 0
M  V30 3 O 2.6802 -5.1578 0 0
M  V30 4 C 2.1256 -2.5487 0 0
M  V30 5 C 1.2204 -1.3028 0 0
M  V30 6 O 2.1256 -0.0569 0 0
M  V30 7 C 3.5902 -0.5328 0 0
M  V30 8 C 4.9239 0.2372 0 0
M  V30 9 C 6.2576 -0.5328 0 0
M  V30 10 C 6.2576 -2.0728 0 0
M  V30 11 C 4.9239 -2.8428 0 0
M  V30 12 O 4.9239 -4.3828 0 0
M  V30 13 C 3.5902 -2.0728 0 0
M  V30 END ATOM
M  V30 BEGIN BOND
M  V30 1 1 1 2
M  V30 2 2 2 3
M  V30 3 1 2 4
M  V30 4 2 4 5
M  V30 5 1 5 6
M  V30 6 1 6 7
M  V30 7 1 7 8
M  V30 8 1 8 9
M  V30 9 1 9 10
M  V30 10 1 10 11
M  V30 11 2 11 12
M  V30 12 1 11 13
M  V30 13 1 4 13
M  V30 14 2 7 13
M  V30 END BOND
M  V30 END CTAB
M  END
>  <Catalog ID>
Z1201618250

>  <MW>
180.042

>  <MW (desalted)>
180.157

>  <ClogP>
1.309

>  <logS>
-1.38

>  <HBD>
1

>  <HBA>
3

>  <TPSA>
67.51

>  <RotBonds>
1

$$$$

  Mrv2205 11102315382D          

  0  0  0     0  0            999 V3000
M  V30 BEGIN CTAB
M  V30 COUNTS 10 10 0 0 0
M  V30 BEGIN ATOM
M  V30 1 C 0 4.62 0 0
M  V30 2 C 1.3337 3.85 0 0
M  V30 3 O 2.6674 4.62 0 0
M  V30 4 C 1.3337 2.31 0 0
M  V30 5 C 2.6674 1.54 0 0
M  V30 6 C 2.6674 -0 0 0
M  V30 7 C 1.3337 -0.77 0 0
M  V30 8 Br 1.3337 -2.31 0 0
M  V30 9 C 0 0 0 0
M  V30 10 C 0 1.54 0 0
M  V30 END ATOM
M  V30 BEGIN BOND
M  V30 1 1 1 2
M  V30 2 2 2 3
M  V30 3 1 2 4
M  V30 4 1 4 5
M  V30 5 2 5 6
M  V30 6 1 6 7
M  V30 7 1 7 8
M  V30 8 2 7 9
M  V30 9 1 9 10
M  V30 10 2 4 10
M  V30 END BOND
M  V30 END CTAB
M  END
>  <Catalog ID>
Z57127459

>  <MW>
197.968

>  <MW (desalted)>
199.045

>  <ClogP>
2.52

>  <logS>
-2.89

>  <HBD>
0

>  <HBA>
1

>  <TPSA>
17.07

>  <RotBonds>
1

$$$$

  Mrv2205 11102315382D          

  0  0  0     0  0            999 V3000
M  V30 BEGIN CTAB
M  V30 COUNTS 8 8 0 0 0
M  V30 BEGIN ATOM
M  V30 1 C 1.3337 3.85 0 0
M  V30 2 C 1.3337 2.31 0 0
M  V30 3 C 2.6674 1.54 0 0
M  V30 4 C 2.6674 -0 0 0
M  V30 5 N 1.3337 -0.77 0 0
M  V30 6 C 0 0 0 0
M  V30 7 N -1.3337 -0.77 0 0
M  V30 8 C 0 1.54 0 0
M  V30 END ATOM
M  V30 BEGIN BOND
M  V30 1 1 1 2
M  V30 2 1 2 3
M  V30 3 2 3 4
M  V30 4 1 4 5
M  V30 5 2 5 6
M  V30 6 1 6 7
M  V30 7 1 6 8
M  V30 8 2 2 8
M  V30 END BOND
M  V30 END CTAB
M  END
>  <Catalog ID>
Z203045032

>  <MW>
108.069

>  <MW (desalted)>
108.141

>  <ClogP>
0.817

>  <logS>
-1.1

>  <HBD>
1

>  <HBA>
2

>  <TPSA>
38.91

>  <RotBonds>
0

$$$$

  Mrv2205 11102315382D          

  0  0  0     0  0            999 V3000
M  V30 BEGIN CTAB
M  V30 COUNTS 11 11 0 0 0
M  V30 BEGIN ATOM
M  V30 1 F 1.3337 5.39 0 0
M  V30 2 C 1.3337 3.85 0 0
M  V30 3 F -0.2063 3.85 0 0
M  V30 4 F 2.8737 3.85 0 0
M  V30 5 C 1.3337 2.31 0 0
M  V30 6 N 2.6674 1.54 0 0
M  V30 7 C 2.6674 -0 0 0
M  V30 8 C 1.3337 -0.77 0 0
M  V30 9 Br 1.3337 -2.31 0 0
M  V30 10 C 0 0 0 0
M  V30 11 N 0 1.54 0 0
M  V30 END ATOM
M  V30 BEGIN BOND
M  V30 1 1 1 2
M  V30 2 1 2 3
M  V30 3 1 2 4
M  V30 4 1 2 5
M  V30 5 1 5 6
M  V30 6 2 6 7
M  V30 7 1 7 8
M  V30 8 1 8 9
M  V30 9 2 8 10
M  V30 10 1 10 11
M  V30 11 2 5 11
M  V30 END BOND
M  V30 END CTAB
M  END
>  <Catalog ID>
Z729557174

>  <MW>
225.935

>  <MW (desalted)>
226.982

>  <ClogP>
1.514

>  <logS>
-2.129

>  <HBD>
0

>  <HBA>
2

>  <TPSA>
25.78

>  <RotBonds>
1

$$$$

  Mrv2205 11102315382D          

  0  0  0     0  0            999 V3000
M  V30 BEGIN CTAB
M  V30 COUNTS 13 14 0 0 0
M  V30 BEGIN ATOM
M  V30 1 C 0.1434 -4.3335 0 0
M  V30 2 C 1.6497 -4.0133 0 0
M  V30 3 O 2.6802 -5.1578 0 0
M  V30 4 C 2.1256 -2.5487 0 0
M  V30 5 C 1.2204 -1.3028 0 0
M  V30 6 N 2.1256 -0.0569 0 0
M  V30 7 C 3.5902 -0.5328 0 0
M  V30 8 C 4.9239 0.2372 0 0
M  V30 9 C 4.9239 1.7772 0 0
M  V30 10 C 6.2576 -0.5328 0 0
M  V30 11 C 6.2576 -2.0728 0 0
M  V30 12 C 4.9239 -2.8428 0 0
M  V30 13 C 3.5902 -2.0728 0 0
M  V30 END ATOM
M  V30 BEGIN BOND
M  V30 1 1 1 2
M  V30 2 2 2 3
M  V30 3 1 2 4
M  V30 4 2 4 5
M  V30 5 1 5 6
M  V30 6 1 6 7
M  V30 7 1 7 8
M  V30 8 1 8 9
M  V30 9 2 8 10
M  V30 10 1 10 11
M  V30 11 2 11 12
M  V30 12 1 12 13
M  V30 13 1 4 13
M  V30 14 2 7 13
M  V30 END BOND
M  V30 END CTAB
M  END
>  <Catalog ID>
Z1198233123

>  <MW>
173.084

>  <MW (desalted)>
173.211

>  <ClogP>
2.478

>  <logS>
-2.84

>  <HBD>
1

>  <HBA>
1

>  <TPSA>
32.86

>  <RotBonds>
1

$$$$

  Mrv2205 11102315382D          

  0  0  0     0  0            999 V3000
M  V30 BEGIN CTAB
M  V30 COUNTS 9 9 0 0 0
M  V30 BEGIN ATOM
M  V30 1 O 0 4.62 0 0
M  V30 2 C 1.3337 3.85 0 0
M  V30 3 O 2.6674 4.62 0 0
M  V30 4 C 1.3337 2.31 0 0
M  V30 5 C 2.6674 1.54 0 0
M  V30 6 N 2.6674 -0 0 0
M  V30 7 C 1.3337 -0.77 0 0
M  V30 8 C 0 0 0 0
M  V30 9 N 0 1.54 0 0
M  V30 END ATOM
M  V30 BEGIN BOND
M  V30 1 1 1 2
M  V30 2 2 2 3
M  V30 3 1 2 4
M  V30 4 1 4 5
M  V30 5 2 5 6
M  V30 6 1 6 7
M  V30 7 2 7 8
M  V30 8 1 8 9
M  V30 9 2 4 9
M  V30 END BOND
M  V30 END CTAB
M  END
>  <Catalog ID>
Z104476002

>  <MW>
124.027

>  <MW (desalted)>
124.097

>  <ClogP>
0.1

>  <logS>
0.52

>  <HBD>
1

>  <HBA>
4

>  <TPSA>
63.08

>  <RotBonds>
1

$$$$

  Mrv2205 11102315382D          

  0  0  0     0  0            999 V3000
M  V30 BEGIN CTAB
M  V30 COUNTS 10 10 0 0 0
M  V30 BEGIN ATOM
M  V30 1 O -1.6075 6.7 0 0
M  V30 2 C -0.2739 5.93 0 0
M  V30 3 O 1.0598 6.7 0 0
M  V30 4 C -0.2739 4.39 0 0
M  V30 5 O 1.0598 3.62 0 0
M  V30 6 C 1.0598 2.08 0 0
M  V30 7 C 2.3057 1.1748 0 0
M  V30 8 C 1.8298 -0.2898 0 0
M  V30 9 C 0.2898 -0.2898 0 0
M  V30 10 C -0.1861 1.1748 0 0
M  V30 END ATOM
M  V30 BEGIN BOND
M  V30 1 1 1 2
M  V30 2 2 2 3
M  V30 3 1 2 4
M  V30 4 1 4 5
M  V30 5 1 5 6
M  V30 6 1 6 7
M  V30 7 1 7 8
M  V30 8 1 8 9
M  V30 9 1 9 10
M  V30 10 1 6 10
M  V30 END BOND
M  V30 END CTAB
M  END
>  <Catalog ID>
Z316258762

>  <MW>
144.079

>  <MW (desalted)>
144.168

>  <ClogP>
1.081

>  <logS>
-0.63

>  <HBD>
1

>  <HBA>
3

>  <TPSA>
46.53

>  <RotBonds>
3

$$$$

  Mrv2205 11102315382D          

  0  0  0     0  0            999 V3000
M  V30 BEGIN CTAB
M  V30 COUNTS 11 11 0 0 0
M  V30 BEGIN ATOM
M  V30 1 C 1.3337 3.85 0 0
M  V30 2 C 1.3337 2.31 0 0
M  V30 3 C 2.6674 1.54 0 0
M  V30 4 C 2.6674 -0 0 0
M  V30 5 C 1.3337 -0.77 0 0
M  V30 6 C 0 0 0 0
M  V30 7 C -1.3337 -0.77 0 0
M  V30 8 O -1.3337 -2.31 0 0
M  V30 9 O -2.6674 0 0 0
M  V30 10 C 0 1.54 0 0
M  V30 11 N -1.3337 2.31 0 0
M  V30 END ATOM
M  V30 BEGIN BOND
M  V30 1 1 1 2
M  V30 2 1 2 3
M  V30 3 2 3 4
M  V30 4 1 4 5
M  V30 5 2 5 6
M  V30 6 1 6 7
M  V30 7 2 7 8
M  V30 8 1 7 9
M  V30 9 1 6 10
M  V30 10 2 2 10
M  V30 11 1 10 11
M  V30 END BOND
M  V30 END CTAB
M  END
>  <Catalog ID>
Z94600359

>  <MW>
151.063

>  <MW (desalted)>
151.163

>  <ClogP>
1.657

>  <logS>
-1.62

>  <HBD>
2

>  <HBA>
3

>  <TPSA>
63.32

>  <RotBonds>
1

$$$$

  Mrv2205 11102315382D          

  0  0  0     0  0            999 V3000
M  V30 BEGIN CTAB
M  V30 COUNTS 12 13 0 0 0
M  V30 BEGIN ATOM
M  V30 1 O 2.6674 -4.62 0 0
M  V30 2 C 2.6674 -3.08 0 0
M  V30 3 C 1.3337 -2.31 0 0
M  V30 4 C 1.3337 -0.77 0 0
M  V30 5 O 0 0 0 0
M  V30 6 O 2.6674 0 0 0
M  V30 7 C 4.001 -0.77 0 0
M  V30 8 C 5.3347 0 0 0
M  V30 9 C 6.6684 -0.77 0 0
M  V30 10 C 6.6684 -2.31 0 0
M  V30 11 C 5.3347 -3.08 0 0
M  V30 12 C 4.001 -2.31 0 0
M  V30 END ATOM
M  V30 BEGIN BOND
M  V30 1 1 1 2
M  V30 2 2 2 3
M  V30 3 1 3 4
M  V30 4 2 4 5
M  V30 5 1 4 6
M  V30 6 1 6 7
M  V30 7 1 7 8
M  V30 8 2 8 9
M  V30 9 1 9 10
M  V30 10 2 10 11
M  V30 11 1 11 12
M  V30 12 1 2 12
M  V30 13 2 7 12
M  V30 END BOND
M  V30 END CTAB
M  END
>  <Catalog ID>
Z56922074

>  <MW>
162.032

>  <MW (desalted)>
162.142

>  <ClogP>
1.916

>  <logS>
-2.16

>  <HBD>
1

>  <HBA>
2

>  <TPSA>
46.53

>  <RotBonds>
0

$$$$

  Mrv2205 11102315382D          

  0  0  0     0  0            999 V3000
M  V30 BEGIN CTAB
M  V30 COUNTS 12 12 0 0 0
M  V30 BEGIN ATOM
M  V30 1 O 0 6.16 0 0
M  V30 2 C 0 4.62 0 0
M  V30 3 O -1.3337 3.85 0 0
M  V30 4 C 1.3337 3.85 0 0
M  V30 5 C 1.3337 2.31 0 0
M  V30 6 C 2.6674 1.54 0 0
M  V30 7 C 2.6674 -0 0 0
M  V30 8 Cl 4.001 -0.77 0 0
M  V30 9 C 1.3337 -0.77 0 0
M  V30 10 C 0 0 0 0
M  V30 11 Cl -1.3337 -0.77 0 0
M  V30 12 C 0 1.54 0 0
M  V30 END ATOM
M  V30 BEGIN BOND
M  V30 1 1 1 2
M  V30 2 2 2 3
M  V30 3 1 2 4
M  V30 4 1 4 5
M  V30 5 1 5 6
M  V30 6 2 6 7
M  V30 7 1 7 8
M  V30 8 1 7 9
M  V30 9 2 9 10
M  V30 10 1 10 11
M  V30 11 1 10 12
M  V30 12 2 5 12
M  V30 END BOND
M  V30 END CTAB
M  END
>  <Catalog ID>
Z1269159102

>  <MW>
203.974

>  <MW (desalted)>
205.038

>  <ClogP>
2.84

>  <logS>
-2.579

>  <HBD>
1

>  <HBA>
2

>  <TPSA>
37.3

>  <RotBonds>
2

$$$$

  Mrv2205 11102315382D          

  0  0  0     0  0            999 V3000
M  V30 BEGIN CTAB
M  V30 COUNTS 9 9 0 0 0
M  V30 BEGIN ATOM
M  V30 1 N 0 4.62 0 0
M  V30 2 C 1.3337 3.85 0 0
M  V30 3 O 2.6674 4.62 0 0
M  V30 4 C 1.3337 2.31 0 0
M  V30 5 C 2.6674 1.54 0 0
M  V30 6 C 2.6674 -0 0 0
M  V30 7 C 1.3337 -0.77 0 0
M  V30 8 C 0 0 0 0
M  V30 9 C 0 1.54 0 0
M  V30 END ATOM
M  V30 BEGIN BOND
M  V30 1 1 1 2
M  V30 2 2 2 3
M  V30 3 1 2 4
M  V30 4 1 4 5
M  V30 5 1 5 6
M  V30 6 1 6 7
M  V30 7 1 7 8
M  V30 8 1 8 9
M  V30 9 1 4 9
M  V30 END BOND
M  V30 END CTAB
M  END
>  <Catalog ID>
Z33546516

>  <MW>
127.1

>  <MW (desalted)>
127.184

>  <ClogP>
0.917

>  <logS>
-1.84

>  <HBD>
1

>  <HBA>
1

>  <TPSA>
43.09

>  <RotBonds>
1

$$$$

  Mrv2205 11102315382D          

  0  0  0     0  0            999 V3000
M  V30 BEGIN CTAB
M  V30 COUNTS 10 10 0 0 0
M  V30 BEGIN ATOM
M  V30 1 O -1.6075 6.7 0 0
M  V30 2 C -0.2739 5.93 0 0
M  V30 3 O 1.0598 6.7 0 0
M  V30 4 C -0.2739 4.39 0 0
M  V30 5 N 1.0598 3.62 0 0
M  V30 6 C 1.0598 2.08 0 0
M  V30 7 C 2.3057 1.1748 0 0
M  V30 8 C 1.8298 -0.2898 0 0
M  V30 9 C 0.2898 -0.2898 0 0
M  V30 10 C -0.1861 1.1748 0 0
M  V30 END ATOM
M  V30 BEGIN BOND
M  V30 1 1 1 2
M  V30 2 2 2 3
M  V30 3 1 2 4
M  V30 4 1 4 5
M  V30 5 1 5 6
M  V30 6 1 6 7
M  V30 7 1 7 8
M  V30 8 1 8 9
M  V30 9 1 9 10
M  V30 10 1 6 10
M  V30 END BOND
M  V30 END CTAB
M  END
>  <Catalog ID>
Z359505658

>  <MW>
143.095

>  <MW (desalted)>
143.184

>  <ClogP>
-1.652

>  <logS>
-0.61

>  <HBD>
2

>  <HBA>
3

>  <TPSA>
49.33

>  <RotBonds>
3

$$$$

  Mrv2205 11102315382D          

  0  0  0     0  0            999 V3000
M  V30 BEGIN CTAB
M  V30 COUNTS 10 10 0 0 0
M  V30 BEGIN ATOM
M  V30 1 C 1.3337 3.85 0 0
M  V30 2 C 1.3337 2.31 0 0
M  V30 3 C 2.6674 1.54 0 0
M  V30 4 C 2.6674 -0 0 0
M  V30 5 C 1.3337 -0.77 0 0
M  V30 6 O 1.3337 -2.31 0 0
M  V30 7 C 0 0 0 0
M  V30 8 C -1.3337 -0.77 0 0
M  V30 9 O -2.6674 0 0 0
M  V30 10 N 0 1.54 0 0
M  V30 END ATOM
M  V30 BEGIN BOND
M  V30 1 1 1 2
M  V30 2 1 2 3
M  V30 3 2 3 4
M  V30 4 1 4 5
M  V30 5 1 5 6
M  V30 6 2 5 7
M  V30 7 1 7 8
M  V30 8 1 8 9
M  V30 9 1 7 10
M  V30 10 2 2 10
M  V30 END BOND
M  V30 END CTAB
M  END
>  <Catalog ID>
Z1104852895

>  <MW>
139.063

>  <MW (desalted)>
139.152

>  <ClogP>
0.793

>  <logS>
0.18

>  <HBD>
2

>  <HBA>
3

>  <TPSA>
53.35

>  <RotBonds>
1

$$$$

  Mrv2205 11102315382D          

  0  0  0     0  0            999 V3000
M  V30 BEGIN CTAB
M  V30 COUNTS 13 14 0 0 0
M  V30 BEGIN ATOM
M  V30 1 O -1.0896 -2.6365 0 0
M  V30 2 C -0.3196 -1.3028 0 0
M  V30 3 O -1.0896 0.0309 0 0
M  V30 4 C 1.2204 -1.3028 0 0
M  V30 5 C 2.1256 -0.0569 0 0
M  V30 6 C 3.5902 -0.5328 0 0
M  V30 7 C 4.9239 0.2372 0 0
M  V30 8 C 6.2576 -0.5328 0 0
M  V30 9 F 7.5913 0.2372 0 0
M  V30 10 C 6.2576 -2.0728 0 0
M  V30 11 C 4.9239 -2.8428 0 0
M  V30 12 C 3.5902 -2.0728 0 0
M  V30 13 N 2.1256 -2.5487 0 0
M  V30 END ATOM
M  V30 BEGIN BOND
M  V30 1 1 1 2
M  V30 2 2 2 3
M  V30 3 1 2 4
M  V30 4 2 4 5
M  V30 5 1 5 6
M  V30 6 1 6 7
M  V30 7 2 7 8
M  V30 8 1 8 9
M  V30 9 1 8 10
M  V30 10 2 10 11
M  V30 11 1 11 12
M  V30 12 2 6 12
M  V30 13 1 12 13
M  V30 14 1 4 13
M  V30 END BOND
M  V30 END CTAB
M  END
>  <Catalog ID>
Z235348085

>  <MW>
179.038

>  <MW (desalted)>
179.148

>  <ClogP>
2.355

>  <logS>
-2.95

>  <HBD>
2

>  <HBA>
2

>  <TPSA>
53.09

>  <RotBonds>
1

$$$$

  Mrv2205 11102315382D          

  0  0  0     0  0            999 V3000
M  V30 BEGIN CTAB
M  V30 COUNTS 13 13 0 0 0
M  V30 BEGIN ATOM
M  V30 1 C 0 4.62 0 0
M  V30 2 O 1.3337 3.85 0 0
M  V30 3 C 1.3337 2.31 0 0
M  V30 4 C 2.6674 1.54 0 0
M  V30 5 C 2.6674 -0 0 0
M  V30 6 C 4.001 -0.77 0 0
M  V30 7 C 4.001 -2.31 0 0
M  V30 8 O 5.3347 -3.08 0 0
M  V30 9 O 2.6674 -3.08 0 0
M  V30 10 C 1.3337 -0.77 0 0
M  V30 11 C 0 0 0 0
M  V30 12 C 0 1.54 0 0
M  V30 13 O -1.3337 2.31 0 0
M  V30 END ATOM
M  V30 BEGIN BOND
M  V30 1 1 1 2
M  V30 2 1 2 3
M  V30 3 1 3 4
M  V30 4 2 4 5
M  V30 5 1 5 6
M  V30 6 1 6 7
M  V30 7 2 7 8
M  V30 8 1 7 9
M  V30 9 1 5 10
M  V30 10 2 10 11
M  V30 11 1 11 12
M  V30 12 2 3 12
M  V30 13 1 12 13
M  V30 END BOND
M  V30 END CTAB
M  END
>  <Catalog ID>
Z1203162033

>  <MW>
182.058

>  <MW (desalted)>
182.173

>  <ClogP>
0.596

>  <logS>
-0.692

>  <HBD>
2

>  <HBA>
4

>  <TPSA>
66.76

>  <RotBonds>
3

$$$$

  Mrv2205 11102315382D          

  0  0  0     0  0            999 V3000
M  V30 BEGIN CTAB
M  V30 COUNTS 14 15 0 0 0
M  V30 BEGIN ATOM
M  V30 1 C 1.6497 -4.0133 0 0
M  V30 2 N 2.1256 -2.5487 0 0
M  V30 3 C 1.2204 -1.3028 0 0
M  V30 4 N 2.1256 -0.0569 0 0
M  V30 5 C 3.5902 -0.5328 0 0
M  V30 6 N 4.9239 0.2372 0 0
M  V30 7 C 4.9239 1.7772 0 0
M  V30 8 C 6.2576 -0.5328 0 0
M  V30 9 O 7.5913 0.2372 0 0
M  V30 10 N 6.2576 -2.0728 0 0
M  V30 11 C 7.5913 -2.8428 0 0
M  V30 12 C 4.9239 -2.8428 0 0
M  V30 13 O 4.9239 -4.3828 0 0
M  V30 14 C 3.5902 -2.0728 0 0
M  V30 END ATOM
M  V30 BEGIN BOND
M  V30 1 1 1 2
M  V30 2 1 2 3
M  V30 3 2 3 4
M  V30 4 1 4 5
M  V30 5 1 5 6
M  V30 6 1 6 7
M  V30 7 1 6 8
M  V30 8 2 8 9
M  V30 9 1 8 10
M  V30 10 1 10 11
M  V30 11 1 10 12
M  V30 12 2 12 13
M  V30 13 1 12 14
M  V30 14 1 2 14
M  V30 15 2 5 14
M  V30 END BOND
M  V30 END CTAB
M  END
>  <Catalog ID>
Z104507896

>  <MW>
194.08

>  <MW (desalted)>
194.191

>  <ClogP>
-0.04

>  <logS>
-0.65

>  <HBD>
0

>  <HBA>
3

>  <TPSA>
58.44

>  <RotBonds>
0

$$$$

  Mrv2205 11102315382D          

  0  0  0     0  0            999 V3000
M  V30 BEGIN CTAB
M  V30 COUNTS 10 11 0 0 0
M  V30 BEGIN ATOM
M  V30 1 N 1.6497 -4.0133 0 0
M  V30 2 C 2.1256 -2.5487 0 0
M  V30 3 N 1.2204 -1.3028 0 0
M  V30 4 O 2.1256 -0.0569 0 0
M  V30 5 C 3.5902 -0.5328 0 0
M  V30 6 C 4.9239 0.2372 0 0
M  V30 7 C 6.2576 -0.5328 0 0
M  V30 8 C 6.2576 -2.0728 0 0
M  V30 9 C 4.9239 -2.8428 0 0
M  V30 10 C 3.5902 -2.0728 0 0
M  V30 END ATOM
M  V30 BEGIN BOND
M  V30 1 1 1 2
M  V30 2 2 2 3
M  V30 3 1 3 4
M  V30 4 1 4 5
M  V30 5 1 5 6
M  V30 6 2 6 7
M  V30 7 1 7 8
M  V30 8 2 8 9
M  V30 9 1 9 10
M  V30 10 1 2 10
M  V30 11 2 5 10
M  V30 END BOND
M  V30 END CTAB
M  END
>  <Catalog ID>
Z218760918

>  <MW>
134.048

>  <MW (desalted)>
134.135

>  <ClogP>
1.153

>  <logS>
-1.87

>  <HBD>
1

>  <HBA>
2

>  <TPSA>
52.05

>  <RotBonds>
0

$$$$

  Mrv2205 11102315382D          

  0  0  0     0  0            999 V3000
M  V30 BEGIN CTAB
M  V30 COUNTS 14 15 0 0 0
M  V30 BEGIN ATOM
M  V30 1 N 4.001 -0.77 0 0
M  V30 2 C 4.001 -2.31 0 0
M  V30 3 C 5.3347 -3.08 0 0
M  V30 4 C 5.3347 -4.62 0 0
M  V30 5 C 4.001 -5.39 0 0
M  V30 6 C 2.6674 -4.62 0 0
M  V30 7 O 1.3337 -5.39 0 0
M  V30 8 C 0 -4.62 0 0
M  V30 9 C -1.3337 -5.39 0 0
M  V30 10 C -2.6674 -4.62 0 0
M  V30 11 C -2.6674 -3.08 0 0
M  V30 12 C -1.3337 -2.31 0 0
M  V30 13 N 0 -3.08 0 0
M  V30 14 C 2.6674 -3.08 0 0
M  V30 END ATOM
M  V30 BEGIN BOND
M  V30 1 1 1 2
M  V30 2 1 2 3
M  V30 3 2 3 4
M  V30 4 1 4 5
M  V30 5 2 5 6
M  V30 6 1 6 7
M  V30 7 1 7 8
M  V30 8 1 8 9
M  V30 9 2 9 10
M  V30 10 1 10 11
M  V30 11 2 11 12
M  V30 12 1 12 13
M  V30 13 2 8 13
M  V30 14 1 6 14
M  V30 15 2 2 14
M  V30 END BOND
M  V30 END CTAB
M  END
>  <Catalog ID>
Z404012058

>  <MW>
186.079

>  <MW (desalted)>
186.21

>  <ClogP>
1.516

>  <logS>
-2.61

>  <HBD>
1

>  <HBA>
2

>  <TPSA>
48.14

>  <RotBonds>
2

$$$$

  Mrv2205 11102315382D          

  0  0  0     0  0            999 V3000
M  V30 BEGIN CTAB
M  V30 COUNTS 17 18 0 0 0
M  V30 BEGIN ATOM
M  V30 1 F 4.001 0.77 0 0
M  V30 2 C 4.001 -0.77 0 0
M  V30 3 F 2.461 -0.77 0 0
M  V30 4 F 5.541 -0.77 0 0
M  V30 5 C 4.001 -2.31 0 0
M  V30 6 C 5.3347 -3.08 0 0
M  V30 7 C 5.3347 -4.62 0 0
M  V30 8 C 4.001 -5.39 0 0
M  V30 9 O 4.001 -6.93 0 0
M  V30 10 C 2.6674 -7.7 0 0
M  V30 11 C 2.6674 -9.24 0 0
M  V30 12 C 1.3337 -10.01 0 0
M  V30 13 N -0 -9.24 0 0
M  V30 14 C 0 -7.7 0 0
M  V30 15 C 1.3337 -6.93 0 0
M  V30 16 N 2.6674 -4.62 0 0
M  V30 17 C 2.6674 -3.08 0 0
M  V30 END ATOM
M  V30 BEGIN BOND
M  V30 1 1 1 2
M  V30 2 1 2 3
M  V30 3 1 2 4
M  V30 4 1 2 5
M  V30 5 1 5 6
M  V30 6 2 6 7
M  V30 7 1 7 8
M  V30 8 1 8 9
M  V30 9 1 9 10
M  V30 10 1 10 11
M  V30 11 1 11 12
M  V30 12 1 12 13
M  V30 13 1 13 14
M  V30 14 1 14 15
M  V30 15 1 10 15
M  V30 16 2 8 16
M  V30 17 1 16 17
M  V30 18 2 5 17
M  V30 END BOND
M  V30 END CTAB
M  END
>  <Catalog ID>
Z976688982

>  <MW>
246.098

>  <MW (desalted)>
246.229

>  <ClogP>
2.057

>  <logS>
-2.118

>  <HBD>
1

>  <HBA>
3

>  <TPSA>
34.15

>  <RotBonds>
3

$$$$

  Mrv2205 11102315382D          

  0  0  0     0  0            999 V3000
M  V30 BEGIN CTAB
M  V30 COUNTS 9 9 0 0 0
M  V30 BEGIN ATOM
M  V30 1 C 1.0598 3.62 0 0
M  V30 2 C 1.0598 2.08 0 0
M  V30 3 N 2.3057 1.1748 0 0
M  V30 4 C 1.8298 -0.2898 0 0
M  V30 5 C 0.2898 -0.2898 0 0
M  V30 6 N -0.1861 1.1748 0 0
M  V30 7 C -1.6507 1.6507 0 0
M  V30 8 C -1.9709 3.157 0 0
M  V30 9 O -3.4355 3.6329 0 0
M  V30 END ATOM
M  V30 BEGIN BOND
M  V30 1 1 1 2
M  V30 2 2 2 3
M  V30 3 1 3 4
M  V30 4 2 4 5
M  V30 5 1 5 6
M  V30 6 1 2 6
M  V30 7 1 6 7
M  V30 8 1 7 8
M  V30 9 1 8 9
M  V30 END BOND
M  V30 END CTAB
M  END
>  <Catalog ID>
Z425794744

>  <MW>
126.079

>  <MW (desalted)>
126.156

>  <ClogP>
-0.574

>  <logS>
0.89

>  <HBD>
1

>  <HBA>
2

>  <TPSA>
38.05

>  <RotBonds>
2

$$$$

  Mrv2205 11102315382D          

  0  0  0     0  0            999 V3000
M  V30 BEGIN CTAB
M  V30 COUNTS 10 10 0 0 0
M  V30 BEGIN ATOM
M  V30 1 O 1.3337 3.85 0 0
M  V30 2 C 1.3337 2.31 0 0
M  V30 3 C 2.6674 1.54 0 0
M  V30 4 C 2.6674 -0 0 0
M  V30 5 C 1.3337 -0.77 0 0
M  V30 6 C 1.3337 -2.31 0 0
M  V30 7 C 2.6674 -3.08 0 0
M  V30 8 N 4.001 -3.85 0 0
M  V30 9 C 0 0 0 0
M  V30 10 C 0 1.54 0 0
M  V30 END ATOM
M  V30 BEGIN BOND
M  V30 1 1 1 2
M  V30 2 1 2 3
M  V30 3 2 3 4
M  V30 4 1 4 5
M  V30 5 1 5 6
M  V30 6 1 6 7
M  V30 7 3 7 8
M  V30 8 2 5 9
M  V30 9 1 9 10
M  V30 10 2 2 10
M  V30 END BOND
M  V30 END CTAB
M  END
>  <Catalog ID>
Z90120144

>  <MW>
133.053

>  <MW (desalted)>
133.147

>  <ClogP>
0.897

>  <logS>
-1.21

>  <HBD>
1

>  <HBA>
2

>  <TPSA>
44.02

>  <RotBonds>
1

$$$$

  Mrv2205 11102315382D          

  0  0  0     0  0            999 V3000
M  V30 BEGIN CTAB
M  V30 COUNTS 11 11 0 0 0
M  V30 BEGIN ATOM
M  V30 1 C 0 6.16 0 0
M  V30 2 C 0 4.62 0 0
M  V30 3 O -1.3337 3.85 0 0
M  V30 4 N 1.3337 3.85 0 0
M  V30 5 C 1.3337 2.31 0 0
M  V30 6 C 2.6674 1.54 0 0
M  V30 7 C 2.6674 -0 0 0
M  V30 8 C 1.3337 -0.77 0 0
M  V30 9 C 0 0 0 0
M  V30 10 N -1.3337 -0.77 0 0
M  V30 11 C 0 1.54 0 0
M  V30 END ATOM
M  V30 BEGIN BOND
M  V30 1 1 1 2
M  V30 2 2 2 3
M  V30 3 1 2 4
M  V30 4 1 4 5
M  V30 5 1 5 6
M  V30 6 2 6 7
M  V30 7 1 7 8
M  V30 8 2 8 9
M  V30 9 1 9 10
M  V30 10 1 9 11
M  V30 11 2 5 11
M  V30 END BOND
M  V30 END CTAB
M  END
>  <Catalog ID>
Z56926524

>  <MW>
150.079

>  <MW (desalted)>
150.178

>  <ClogP>
-0.066

>  <logS>
-1.36

>  <HBD>
2

>  <HBA>
2

>  <TPSA>
55.12

>  <RotBonds>
1

$$$$

  Mrv2205 11102315382D          

  0  0  0     0  0            999 V3000
M  V30 BEGIN CTAB
M  V30 COUNTS 13 14 0 0 0
M  V30 BEGIN ATOM
M  V30 1 C 7.5913 4.3828 0 0
M  V30 2 C 6.2576 3.6128 0 0
M  V30 3 C 6.2576 2.0728 0 0
M  V30 4 C 4.9239 1.3028 0 0
M  V30 5 C 3.5902 2.0728 0 0
M  V30 6 C 2.1256 1.5969 0 0
M  V30 7 C 1.2204 2.8428 0 0
M  V30 8 N 2.1256 4.0887 0 0
M  V30 9 C 3.5902 3.6128 0 0
M  V30 10 C 4.9239 4.3828 0 0
M  V30 11 C 1.6497 0.1323 0 0
M  V30 12 O 2.6802 -1.0121 0 0
M  V30 13 O 0.1434 -0.1879 0 0
M  V30 END ATOM
M  V30 BEGIN BOND
M  V30 1 1 1 2
M  V30 2 1 2 3
M  V30 3 2 3 4
M  V30 4 1 4 5
M  V30 5 1 5 6
M  V30 6 2 6 7
M  V30 7 1 7 8
M  V30 8 1 8 9
M  V30 9 2 5 9
M  V30 10 1 9 10
M  V30 11 2 2 10
M  V30 12 1 6 11
M  V30 13 2 11 12
M  V30 14 1 11 13
M  V30 END BOND
M  V30 END CTAB
M  END
>  <Catalog ID>
Z385446074

>  <MW>
175.063

>  <MW (desalted)>
175.184

>  <ClogP>
2.63

>  <logS>
-2.84

>  <HBD>
2

>  <HBA>
2

>  <TPSA>
53.09

>  <RotBonds>
1

$$$$

  Mrv2205 11102315382D          

  0  0  0     0  0            999 V3000
M  V30 BEGIN CTAB
M  V30 COUNTS 11 12 0 0 0
M  V30 BEGIN ATOM
M  V30 1 O 2.6674 -4.62 0 0
M  V30 2 C 2.6674 -3.08 0 0
M  V30 3 N 1.3337 -2.31 0 0
M  V30 4 C 1.3337 -0.77 0 0
M  V30 5 C 2.6674 0 0 0
M  V30 6 C 4.001 -0.77 0 0
M  V30 7 C 5.3347 0 0 0
M  V30 8 C 6.6684 -0.77 0 0
M  V30 9 C 6.6684 -2.31 0 0
M  V30 10 C 5.3347 -3.08 0 0
M  V30 11 C 4.001 -2.31 0 0
M  V30 END ATOM
M  V30 BEGIN BOND
M  V30 1 2 1 2
M  V30 2 1 2 3
M  V30 3 1 3 4
M  V30 4 1 4 5
M  V30 5 1 5 6
M  V30 6 1 6 7
M  V30 7 2 7 8
M  V30 8 1 8 9
M  V30 9 2 9 10
M  V30 10 1 10 11
M  V30 11 1 2 11
M  V30 12 2 6 11
M  V30 END BOND
M  V30 END CTAB
M  END
>  <Catalog ID>
Z56801375

>  <MW>
147.068

>  <MW (desalted)>
147.174

>  <ClogP>
0.996

>  <logS>
-1.47

>  <HBD>
1

>  <HBA>
1

>  <TPSA>
29.1

>  <RotBonds>
0

$$$$

  Mrv2205 11102315382D          

  0  0  0     0  0            999 V3000
M  V30 BEGIN CTAB
M  V30 COUNTS 14 14 0 0 0
M  V30 BEGIN ATOM
M  V30 1 C -1.3337 5.39 0 0
M  V30 2 S 0 4.62 0 0
M  V30 3 O -0.77 3.2863 0 0
M  V30 4 O 0.77 5.9537 0 0
M  V30 5 N 1.3337 3.85 0 0
M  V30 6 C 1.3337 2.31 0 0
M  V30 7 C 2.6674 1.54 0 0
M  V30 8 C 2.6674 -0 0 0
M  V30 9 C 1.3337 -0.77 0 0
M  V30 10 C 0 0 0 0
M  V30 11 C 0 1.54 0 0
M  V30 12 C 1.3337 -2.31 0 0
M  V30 13 O 2.6674 -3.08 0 0
M  V30 14 O -0 -3.08 0 0
M  V30 END ATOM
M  V30 BEGIN BOND
M  V30 1 1 1 2
M  V30 2 2 2 3
M  V30 3 2 2 4
M  V30 4 1 2 5
M  V30 5 1 5 6
M  V30 6 1 6 7
M  V30 7 2 7 8
M  V30 8 1 8 9
M  V30 9 2 9 10
M  V30 10 1 10 11
M  V30 11 2 6 11
M  V30 12 1 9 12
M  V30 13 2 12 13
M  V30 14 1 12 14
M  V30 END BOND
M  V30 END CTAB
M  END
>  <Catalog ID>
Z45636695

>  <MW>
215.025

>  <MW (desalted)>
215.226

>  <ClogP>
0.918

>  <logS>
-1.47

>  <HBD>
2

>  <HBA>
4

>  <TPSA>
83.47

>  <RotBonds>
2

$$$$

  Mrv2205 11102315382D          

  0  0  0     0  0            999 V3000
M  V30 BEGIN CTAB
M  V30 COUNTS 16 17 0 0 0
M  V30 BEGIN ATOM
M  V30 1 O -4.001 -0.77 0 0
M  V30 2 C -2.6674 -0 0 0
M  V30 3 O -2.6674 1.54 0 0
M  V30 4 C -1.3337 -0.77 0 0
M  V30 5 C 0 -0 0 0
M  V30 6 C 1.3337 -0.77 0 0
M  V30 7 N 2.6674 0 0 0
M  V30 8 C 4.001 -0.77 0 0
M  V30 9 C 5.3347 0 0 0
M  V30 10 C 6.6684 -0.77 0 0
M  V30 11 C 6.6684 -2.31 0 0
M  V30 12 C 5.3347 -3.08 0 0
M  V30 13 C 4.001 -2.31 0 0
M  V30 14 N 2.6674 -3.08 0 0
M  V30 15 C 1.3337 -2.31 0 0
M  V30 16 O 0 -3.08 0 0
M  V30 END ATOM
M  V30 BEGIN BOND
M  V30 1 1 1 2
M  V30 2 2 2 3
M  V30 3 1 2 4
M  V30 4 1 4 5
M  V30 5 1 5 6
M  V30 6 2 6 7
M  V30 7 1 7 8
M  V30 8 1 8 9
M  V30 9 2 9 10
M  V30 10 1 10 11
M  V30 11 2 11 12
M  V30 12 1 12 13
M  V30 13 2 8 13
M  V30 14 1 13 14
M  V30 15 1 14 15
M  V30 16 1 6 15
M  V30 17 2 15 16
M  V30 END BOND
M  V30 END CTAB
M  END
>  <Catalog ID>
Z56862720

>  <MW>
218.069

>  <MW (desalted)>
218.209

>  <ClogP>
0.066

>  <logS>
-1.35

>  <HBD>
2

>  <HBA>
4

>  <TPSA>
78.76

>  <RotBonds>
3

$$$$

  Mrv2205 11102315382D          

  0  0  0     0  0            999 V3000
M  V30 BEGIN CTAB
M  V30 COUNTS 15 16 0 0 0
M  V30 BEGIN ATOM
M  V30 1 F -1.3337 -3.85 0 0
M  V30 2 C 0 -3.08 0 0
M  V30 3 F 0.77 -4.4137 0 0
M  V30 4 F -0.77 -1.7463 0 0
M  V30 5 C 1.3337 -2.31 0 0
M  V30 6 C 1.3337 -0.77 0 0
M  V30 7 C 2.6674 0 0 0
M  V30 8 C 4.001 -0.77 0 0
M  V30 9 N 5.3347 0 0 0
M  V30 10 C 6.6684 -0.77 0 0
M  V30 11 C 6.6684 -2.31 0 0
M  V30 12 O 8.0021 -3.08 0 0
M  V30 13 N 5.3347 -3.08 0 0
M  V30 14 C 4.001 -2.31 0 0
M  V30 15 C 2.6674 -3.08 0 0
M  V30 END ATOM
M  V30 BEGIN BOND
M  V30 1 1 1 2
M  V30 2 1 2 3
M  V30 3 1 2 4
M  V30 4 1 2 5
M  V30 5 1 5 6
M  V30 6 2 6 7
M  V30 7 1 7 8
M  V30 8 1 8 9
M  V30 9 1 9 10
M  V30 10 1 10 11
M  V30 11 2 11 12
M  V30 12 1 11 13
M  V30 13 1 13 14
M  V30 14 2 8 14
M  V30 15 1 14 15
M  V30 16 2 5 15
M  V30 END BOND
M  V30 END CTAB
M  END
>  <Catalog ID>
Z147641710

>  <MW>
216.051

>  <MW (desalted)>
216.16

>  <ClogP>
1.977

>  <logS>
-2.31

>  <HBD>
2

>  <HBA>
2

>  <TPSA>
41.13

>  <RotBonds>
1

$$$$

  Mrv2205 11102315382D          

  0  0  0     0  0            999 V3000
M  V30 BEGIN CTAB
M  V30 COUNTS 8 8 0 0 0
M  V30 BEGIN ATOM
M  V30 1 O -0.2739 4.39 0 0
M  V30 2 C 1.0598 3.62 0 0
M  V30 3 O 2.3935 4.39 0 0
M  V30 4 C 1.0598 2.08 0 0
M  V30 5 C 2.3057 1.1748 0 0
M  V30 6 C 1.8298 -0.2898 0 0
M  V30 7 C 0.2898 -0.2898 0 0
M  V30 8 O -0.1861 1.1748 0 0
M  V30 END ATOM
M  V30 BEGIN BOND
M  V30 1 1 1 2
M  V30 2 2 2 3
M  V30 3 1 2 4
M  V30 4 2 4 5
M  V30 5 1 5 6
M  V30 6 2 6 7
M  V30 7 1 7 8
M  V30 8 1 4 8
M  V30 END BOND
M  V30 END CTAB
M  END
>  <Catalog ID>
Z104473462

>  <MW>
112.016

>  <MW (desalted)>
112.083

>  <ClogP>
1.061

>  <logS>
-0.88

>  <HBD>
1

>  <HBA>
2

>  <TPSA>
50.44

>  <RotBonds>
1

$$$$

  Mrv2205 11102315382D          

  0  0  0     0  0            999 V3000
M  V30 BEGIN CTAB
M  V30 COUNTS 12 12 0 0 0
M  V30 BEGIN ATOM
M  V30 1 O -1.3337 6.93 0 0
M  V30 2 C 0 6.16 0 0
M  V30 3 O 1.3337 6.93 0 0
M  V30 4 C 0 4.62 0 0
M  V30 5 C 1.3337 3.85 0 0
M  V30 6 C 1.3337 2.31 0 0
M  V30 7 C 2.6674 1.54 0 0
M  V30 8 C 2.6674 -0 0 0
M  V30 9 C 1.3337 -0.77 0 0
M  V30 10 Cl 1.3337 -2.31 0 0
M  V30 11 C 0 0 0 0
M  V30 12 C 0 1.54 0 0
M  V30 END ATOM
M  V30 BEGIN BOND
M  V30 1 1 1 2
M  V30 2 2 2 3
M  V30 3 1 2 4
M  V30 4 1 4 5
M  V30 5 1 5 6
M  V30 6 1 6 7
M  V30 7 2 7 8
M  V30 8 1 8 9
M  V30 9 1 9 10
M  V30 10 2 9 11
M  V30 11 1 11 12
M  V30 12 2 6 12
M  V30 END BOND
M  V30 END CTAB
M  END
>  <Catalog ID>
Z178961272

>  <MW>
184.029

>  <MW (desalted)>
184.62

>  <ClogP>
2.616

>  <logS>
-2.11

>  <HBD>
1

>  <HBA>
2

>  <TPSA>
37.3

>  <RotBonds>
3

$$$$

  Mrv2205 11102315382D          

  0  0  0     0  0            999 V3000
M  V30 BEGIN CTAB
M  V30 COUNTS 12 13 0 0 0
M  V30 BEGIN ATOM
M  V30 1 O 7.5913 5.9228 0 0
M  V30 2 C 7.5913 4.3828 0 0
M  V30 3 O 8.925 3.6128 0 0
M  V30 4 C 6.2576 3.6128 0 0
M  V30 5 C 6.2576 2.0728 0 0
M  V30 6 C 4.9239 1.3028 0 0
M  V30 7 C 3.5902 2.0728 0 0
M  V30 8 C 2.1256 1.5969 0 0
M  V30 9 C 1.2204 2.8428 0 0
M  V30 10 N 2.1256 4.0887 0 0
M  V30 11 C 3.5902 3.6128 0 0
M  V30 12 C 4.9239 4.3828 0 0
M  V30 END ATOM
M  V30 BEGIN BOND
M  V30 1 1 1 2
M  V30 2 2 2 3
M  V30 3 1 2 4
M  V30 4 1 4 5
M  V30 5 2 5 6
M  V30 6 1 6 7
M  V30 7 1 7 8
M  V30 8 2 8 9
M  V30 9 1 9 10
M  V30 10 1 10 11
M  V30 11 2 7 11
M  V30 12 1 11 12
M  V30 13 2 4 12
M  V30 END BOND
M  V30 END CTAB
M  END
>  <Catalog ID>
Z385481296

>  <MW>
161.048

>  <MW (desalted)>
161.157

>  <ClogP>
2.067

>  <logS>
-2.41

>  <HBD>
2

>  <HBA>
2

>  <TPSA>
53.09

>  <RotBonds>
1

$$$$

  Mrv2205 11102315382D          

  0  0  0     0  0            999 V3000
M  V30 BEGIN CTAB
M  V30 COUNTS 13 13 0 0 0
M  V30 BEGIN ATOM
M  V30 1 C 1.3337 3.85 0 0
M  V30 2 C 1.3337 2.31 0 0
M  V30 3 C 2.6674 1.54 0 0
M  V30 4 C 2.6674 -0 0 0
M  V30 5 C 1.3337 -0.77 0 0
M  V30 6 C 0 0 0 0
M  V30 7 C -1.3337 -0.77 0 0
M  V30 8 C 0 1.54 0 0
M  V30 9 O -1.3337 2.31 0 0
M  V30 10 C -2.6674 1.54 0 0
M  V30 11 C -4.001 2.31 0 0
M  V30 12 O -5.3347 1.54 0 0
M  V30 13 O -4.001 3.85 0 0
M  V30 END ATOM
M  V30 BEGIN BOND
M  V30 1 1 1 2
M  V30 2 1 2 3
M  V30 3 2 3 4
M  V30 4 1 4 5
M  V30 5 2 5 6
M  V30 6 1 6 7
M  V30 7 1 6 8
M  V30 8 2 2 8
M  V30 9 1 8 9
M  V30 10 1 9 10
M  V30 11 1 10 11
M  V30 12 2 11 12
M  V30 13 1 11 13
M  V30 END BOND
M  V30 END CTAB
M  END
>  <Catalog ID>
Z56924437

>  <MW>
180.079

>  <MW (desalted)>
180.2

>  <ClogP>
2.348

>  <logS>
-2.04

>  <HBD>
1

>  <HBA>
3

>  <TPSA>
46.53

>  <RotBonds>
3

$$$$

  Mrv2205 11102315382D          

  0  0  0     0  0            999 V3000
M  V30 BEGIN CTAB
M  V30 COUNTS 13 14 0 0 0
M  V30 BEGIN ATOM
M  V30 1 O 3.679 0.4336 0 0
M  V30 2 C 2.3453 -0.3364 0 0
M  V30 3 O 1.0116 0.4336 0 0
M  V30 4 C 2.3453 -1.8764 0 0
M  V30 5 S 3.5912 -2.7816 0 0
M  V30 6 C 3.1153 -4.2462 0 0
M  V30 7 C 1.5753 -4.2462 0 0
M  V30 8 C 1.0994 -2.7816 0 0
M  V30 9 N -0.3652 -2.3057 0 0
M  V30 10 C -1.6111 -3.2109 0 0
M  V30 11 C -2.857 -2.3057 0 0
M  V30 12 C -2.3811 -0.8411 0 0
M  V30 13 C -0.8411 -0.8411 0 0
M  V30 END ATOM
M  V30 BEGIN BOND
M  V30 1 1 1 2
M  V30 2 2 2 3
M  V30 3 1 2 4
M  V30 4 1 4 5
M  V30 5 1 5 6
M  V30 6 2 6 7
M  V30 7 1 7 8
M  V30 8 2 4 8
M  V30 9 1 8 9
M  V30 10 1 9 10
M  V30 11 2 10 11
M  V30 12 1 11 12
M  V30 13 2 12 13
M  V30 14 1 9 13
M  V30 END BOND
M  V30 END CTAB
M  END
>  <Catalog ID>
Z227832752

>  <MW>
193.02

>  <MW (desalted)>
193.222

>  <ClogP>
2.909

>  <logS>
-1.84

>  <HBD>
1

>  <HBA>
2

>  <TPSA>
42.23

>  <RotBonds>
2

$$$$

  Mrv2205 11102315382D          

  0  0  0     0  0            999 V3000
M  V30 BEGIN CTAB
M  V30 COUNTS 13 14 0 0 0
M  V30 BEGIN ATOM
M  V30 1 O 0 -4.62 0 0
M  V30 2 C 0 -3.08 0 0
M  V30 3 O -1.3337 -2.31 0 0
M  V30 4 C 1.3337 -2.31 0 0
M  V30 5 C 1.3337 -0.77 0 0
M  V30 6 N 2.6674 0 0 0
M  V30 7 C 4.001 -0.77 0 0
M  V30 8 C 5.3347 0 0 0
M  V30 9 C 6.6684 -0.77 0 0
M  V30 10 C 6.6684 -2.31 0 0
M  V30 11 C 5.3347 -3.08 0 0
M  V30 12 C 4.001 -2.31 0 0
M  V30 13 C 2.6674 -3.08 0 0
M  V30 END ATOM
M  V30 BEGIN BOND
M  V30 1 1 1 2
M  V30 2 2 2 3
M  V30 3 1 2 4
M  V30 4 1 4 5
M  V30 5 2 5 6
M  V30 6 1 6 7
M  V30 7 1 7 8
M  V30 8 2 8 9
M  V30 9 1 9 10
M  V30 10 2 10 11
M  V30 11 1 11 12
M  V30 12 2 7 12
M  V30 13 1 12 13
M  V30 14 2 4 13
M  V30 END BOND
M  V30 END CTAB
M  END
>  <Catalog ID>
Z838909446

>  <MW>
173.048

>  <MW (desalted)>
173.168

>  <ClogP>
2.183

>  <logS>
-2.17

>  <HBD>
1

>  <HBA>
3

>  <TPSA>
50.19

>  <RotBonds>
1

$$$$

  Mrv2205 11102315382D          

  0  0  0     0  0            999 V3000
M  V30 BEGIN CTAB
M  V30 COUNTS 11 11 0 0 0
M  V30 BEGIN ATOM
M  V30 1 O 0 6.16 0 0
M  V30 2 N 0 4.62 0 0
M  V30 3 C 1.3337 3.85 0 0
M  V30 4 O 2.6674 4.62 0 0
M  V30 5 C 1.3337 2.31 0 0
M  V30 6 C 2.6674 1.54 0 0
M  V30 7 C 2.6674 -0 0 0
M  V30 8 C 1.3337 -0.77 0 0
M  V30 9 C 0 0 0 0
M  V30 10 C 0 1.54 0 0
M  V30 11 O -1.3337 2.31 0 0
M  V30 END ATOM
M  V30 BEGIN BOND
M  V30 1 1 1 2
M  V30 2 1 2 3
M  V30 3 2 3 4
M  V30 4 1 3 5
M  V30 5 1 5 6
M  V30 6 2 6 7
M  V30 7 1 7 8
M  V30 8 2 8 9
M  V30 9 1 9 10
M  V30 10 2 5 10
M  V30 11 1 10 11
M  V30 END BOND
M  V30 END CTAB
M  END
>  <Catalog ID>
Z57842350

>  <MW>
153.043

>  <MW (desalted)>
153.135

>  <ClogP>
0.877

>  <logS>
-1.04

>  <HBD>
3

>  <HBA>
3

>  <TPSA>
69.56

>  <RotBonds>
1

$$$$

  Mrv2205 11102315382D          

  0  0  0     0  0            999 V3000
M  V30 BEGIN CTAB
M  V30 COUNTS 9 9 0 0 0
M  V30 BEGIN ATOM
M  V30 1 C 0 4.62 0 0
M  V30 2 C 1.3337 3.85 0 0
M  V30 3 C 1.3337 2.31 0 0
M  V30 4 C 2.6674 1.54 0 0
M  V30 5 C 2.6674 -0 0 0
M  V30 6 C 1.3337 -0.77 0 0
M  V30 7 O 1.3337 -2.31 0 0
M  V30 8 C 0 0 0 0
M  V30 9 C 0 1.54 0 0
M  V30 END ATOM
M  V30 BEGIN BOND
M  V30 1 1 1 2
M  V30 2 1 2 3
M  V30 3 1 3 4
M  V30 4 2 4 5
M  V30 5 1 5 6
M  V30 6 1 6 7
M  V30 7 2 6 8
M  V30 8 1 8 9
M  V30 9 2 3 9
M  V30 END BOND
M  V30 END CTAB
M  END
>  <Catalog ID>
Z104479728

>  <MW>
122.073

>  <MW (desalted)>
122.164

>  <ClogP>
2.503

>  <logS>
-2

>  <HBD>
1

>  <HBA>
1

>  <TPSA>
20.23

>  <RotBonds>
1

$$$$

  Mrv2205 11102315382D          

  0  0  0     0  0            999 V3000
M  V30 BEGIN CTAB
M  V30 COUNTS 11 11 0 0 0
M  V30 BEGIN ATOM
M  V30 1 C 0 6.16 0 0
M  V30 2 N 0 4.62 0 0
M  V30 3 C 1.3337 3.85 0 0
M  V30 4 O 2.6674 4.62 0 0
M  V30 5 C 1.3337 2.31 0 0
M  V30 6 C 2.6674 1.54 0 0
M  V30 7 C 2.6674 -0 0 0
M  V30 8 Cl 4.001 -0.77 0 0
M  V30 9 C 1.3337 -0.77 0 0
M  V30 10 C 0 0 0 0
M  V30 11 N 0 1.54 0 0
M  V30 END ATOM
M  V30 BEGIN BOND
M  V30 1 1 1 2
M  V30 2 1 2 3
M  V30 3 2 3 4
M  V30 4 1 3 5
M  V30 5 1 5 6
M  V30 6 2 6 7
M  V30 7 1 7 8
M  V30 8 1 7 9
M  V30 9 2 9 10
M  V30 10 1 10 11
M  V30 11 2 5 11
M  V30 END BOND
M  V30 END CTAB
M  END
>  <Catalog ID>
Z94601331

>  <MW>
170.025

>  <MW (desalted)>
170.596

>  <ClogP>
1.25

>  <logS>
-1.51

>  <HBD>
1

>  <HBA>
2

>  <TPSA>
41.99

>  <RotBonds>
1

$$$$

  Mrv2205 11102315382D          

  0  0  0     0  0            999 V3000
M  V30 BEGIN CTAB
M  V30 COUNTS 11 11 0 0 0
M  V30 BEGIN ATOM
M  V30 1 N 1.3337 3.85 0 0
M  V30 2 C 1.3337 2.31 0 0
M  V30 3 C 2.6674 1.54 0 0
M  V30 4 C 2.6674 -0 0 0
M  V30 5 C 1.3337 -0.77 0 0
M  V30 6 C 0 0 0 0
M  V30 7 C 0 1.54 0 0
M  V30 8 O -1.3337 2.31 0 0
M  V30 9 C 1.3337 -2.31 0 0
M  V30 10 O 2.6674 -3.08 0 0
M  V30 11 O -0 -3.08 0 0
M  V30 END ATOM
M  V30 BEGIN BOND
M  V30 1 1 1 2
M  V30 2 1 2 3
M  V30 3 2 3 4
M  V30 4 1 4 5
M  V30 5 2 5 6
M  V30 6 1 6 7
M  V30 7 2 2 7
M  V30 8 1 7 8
M  V30 9 1 5 9
M  V30 10 2 9 10
M  V30 11 1 9 11
M  V30 END BOND
M  V30 END CTAB
M  END
>  <Catalog ID>
Z431554234

>  <MW>
153.043

>  <MW (desalted)>
153.135

>  <ClogP>
0.796

>  <logS>
-0.95

>  <HBD>
3

>  <HBA>
4

>  <TPSA>
83.55

>  <RotBonds>
1

$$$$

  Mrv2205 11102315382D          

  0  0  0     0  0            999 V3000
M  V30 BEGIN CTAB
M  V30 COUNTS 11 11 0 0 0
M  V30 BEGIN ATOM
M  V30 1 C 1.3337 3.85 0 0
M  V30 2 C 1.3337 2.31 0 0
M  V30 3 C 2.6674 1.54 0 0
M  V30 4 C 2.6674 -0 0 0
M  V30 5 C 1.3337 -0.77 0 0
M  V30 6 C 0 0 0 0
M  V30 7 N -1.3337 -0.77 0 0
M  V30 8 C 0 1.54 0 0
M  V30 9 C -1.3337 2.31 0 0
M  V30 10 O -2.6674 1.54 0 0
M  V30 11 O -1.3337 3.85 0 0
M  V30 END ATOM
M  V30 BEGIN BOND
M  V30 1 1 1 2
M  V30 2 1 2 3
M  V30 3 2 3 4
M  V30 4 1 4 5
M  V30 5 2 5 6
M  V30 6 1 6 7
M  V30 7 1 6 8
M  V30 8 2 2 8
M  V30 9 1 8 9
M  V30 10 2 9 10
M  V30 11 1 9 11
M  V30 END BOND
M  V30 END CTAB
M  END
>  <Catalog ID>
Z802851752

>  <MW>
151.063

>  <MW (desalted)>
151.163

>  <ClogP>
1.407

>  <logS>
-1.86

>  <HBD>
2

>  <HBA>
3

>  <TPSA>
63.32

>  <RotBonds>
1

$$$$

  Mrv2205 11102315382D          

  0  0  0     0  0            999 V3000
M  V30 BEGIN CTAB
M  V30 COUNTS 12 13 0 0 0
M  V30 BEGIN ATOM
M  V30 1 C 1.3337 -5.39 0 0
M  V30 2 C 0 -4.62 0 0
M  V30 3 C 0 -3.08 0 0
M  V30 4 N 1.3337 -2.31 0 0
M  V30 5 C 2.6674 -3.08 0 0
M  V30 6 C 2.6674 -4.62 0 0
M  V30 7 C 1.3337 -0.77 0 0
M  V30 8 C 0 0 0 0
M  V30 9 C 0 1.54 0 0
M  V30 10 N 1.3337 2.31 0 0
M  V30 11 C 2.6674 1.54 0 0
M  V30 12 C 2.6674 -0 0 0
M  V30 END ATOM
M  V30 BEGIN BOND
M  V30 1 1 1 2
M  V30 2 1 2 3
M  V30 3 1 3 4
M  V30 4 1 4 5
M  V30 5 1 5 6
M  V30 6 1 1 6
M  V30 7 1 4 7
M  V30 8 1 7 8
M  V30 9 1 8 9
M  V30 10 1 9 10
M  V30 11 1 10 11
M  V30 12 1 11 12
M  V30 13 1 7 12
M  V30 END BOND
M  V30 END CTAB
M  END
>  <Catalog ID>
Z317268638

>  <MW>
168.163

>  <MW (desalted)>
168.279

>  <ClogP>
0.733

>  <logS>
0

>  <HBD>
1

>  <HBA>
2

>  <TPSA>
15.27

>  <RotBonds>
1

$$$$

  Mrv2205 11102315382D          

  0  0  0     0  0            999 V3000
M  V30 BEGIN CTAB
M  V30 COUNTS 12 13 0 0 0
M  V30 BEGIN ATOM
M  V30 1 C -1.1345 -0.885 0 0
M  V30 2 C -2.4682 -0.115 0 0
M  V30 3 C -3.8019 -0.885 0 0
M  V30 4 C -5.1355 -0.115 0 0
M  V30 5 C -5.1355 1.425 0 0
M  V30 6 C -3.8019 2.195 0 0
M  V30 7 C -2.4682 1.425 0 0
M  V30 8 N -1.1345 -2.425 0 0
M  V30 9 C 0.1114 -3.3302 0 0
M  V30 10 C -0.3645 -4.7948 0 0
M  V30 11 N -1.9045 -4.7948 0 0
M  V30 12 C -2.3804 -3.3302 0 0
M  V30 END ATOM
M  V30 BEGIN BOND
M  V30 1 1 1 2
M  V30 2 1 2 3
M  V30 3 2 3 4
M  V30 4 1 4 5
M  V30 5 2 5 6
M  V30 6 1 6 7
M  V30 7 2 2 7
M  V30 8 1 1 8
M  V30 9 1 8 9
M  V30 10 2 9 10
M  V30 11 1 10 11
M  V30 12 2 11 12
M  V30 13 1 8 12
M  V30 END BOND
M  V30 END CTAB
M  END
>  <Catalog ID>
Z57842700

>  <MW>
158.084

>  <MW (desalted)>
158.2

>  <ClogP>
1.505

>  <logS>
-1.43

>  <HBD>
0

>  <HBA>
1

>  <TPSA>
17.82

>  <RotBonds>
2

$$$$

  Mrv2205 11102315382D          

  0  0  0     0  0            999 V3000
M  V30 BEGIN CTAB
M  V30 COUNTS 13 14 0 0 0
M  V30 BEGIN ATOM
M  V30 1 Cl 7.5913 4.3828 0 0
M  V30 2 C 6.2576 3.6128 0 0
M  V30 3 C 6.2576 2.0728 0 0
M  V30 4 C 4.9239 1.3028 0 0
M  V30 5 C 3.5902 2.0728 0 0
M  V30 6 N 2.1256 1.5969 0 0
M  V30 7 C 1.2204 2.8428 0 0
M  V30 8 C 2.1256 4.0887 0 0
M  V30 9 C 1.6497 5.5533 0 0
M  V30 10 C 0.1434 5.8735 0 0
M  V30 11 N -1.363 6.1937 0 0
M  V30 12 C 3.5902 3.6128 0 0
M  V30 13 C 4.9239 4.3828 0 0
M  V30 END ATOM
M  V30 BEGIN BOND
M  V30 1 1 1 2
M  V30 2 1 2 3
M  V30 3 2 3 4
M  V30 4 1 4 5
M  V30 5 1 5 6
M  V30 6 1 6 7
M  V30 7 2 7 8
M  V30 8 1 8 9
M  V30 9 1 9 10
M  V30 10 3 10 11
M  V30 11 1 8 12
M  V30 12 2 5 12
M  V30 13 1 12 13
M  V30 14 2 2 13
M  V30 END BOND
M  V30 END CTAB
M  END
>  <Catalog ID>
Z1162450204

>  <MW>
190.03

>  <MW (desalted)>
190.629

>  <ClogP>
2.435

>  <logS>
-3.19

>  <HBD>
1

>  <HBA>
1

>  <TPSA>
39.58

>  <RotBonds>
1

$$$$

  Mrv2205 11102315382D          

  0  0  0     0  0            999 V3000
M  V30 BEGIN CTAB
M  V30 COUNTS 14 16 0 0 0
M  V30 BEGIN ATOM
M  V30 1 C -2.6894 -0.5328 0 0
M  V30 2 N -1.2248 -0.0569 0 0
M  V30 3 C -0.3196 -1.3028 0 0
M  V30 4 C -1.2248 -2.5487 0 0
M  V30 5 S -2.6894 -2.0728 0 0
M  V30 6 C 1.2204 -1.3028 0 0
M  V30 7 N 2.1256 -0.0569 0 0
M  V30 8 C 3.5902 -0.5328 0 0
M  V30 9 C 4.9239 0.2372 0 0
M  V30 10 C 6.2576 -0.5328 0 0
M  V30 11 C 6.2576 -2.0728 0 0
M  V30 12 C 4.9239 -2.8428 0 0
M  V30 13 C 3.5902 -2.0728 0 0
M  V30 14 N 2.1256 -2.5487 0 0
M  V30 END ATOM
M  V30 BEGIN BOND
M  V30 1 2 1 2
M  V30 2 1 2 3
M  V30 3 2 3 4
M  V30 4 1 4 5
M  V30 5 1 1 5
M  V30 6 1 3 6
M  V30 7 2 6 7
M  V30 8 1 7 8
M  V30 9 1 8 9
M  V30 10 2 9 10
M  V30 11 1 10 11
M  V30 12 2 11 12
M  V30 13 1 12 13
M  V30 14 2 8 13
M  V30 15 1 13 14
M  V30 16 1 6 14
M  V30 END BOND
M  V30 END CTAB
M  END
>  <Catalog ID>
Z104480436

>  <MW>
201.036

>  <MW (desalted)>
201.248

>  <ClogP>
2.358

>  <logS>
-3.19

>  <HBD>
1

>  <HBA>
2

>  <TPSA>
41.57

>  <RotBonds>
1

$$$$

  Mrv2205 11102315382D          

  0  0  0     0  0            999 V3000
M  V30 BEGIN CTAB
M  V30 COUNTS 10 10 0 0 0
M  V30 BEGIN ATOM
M  V30 1 C 1.3337 3.85 0 0
M  V30 2 C 1.3337 2.31 0 0
M  V30 3 C 2.6674 1.54 0 0
M  V30 4 C 2.6674 -0 0 0
M  V30 5 C 1.3337 -0.77 0 0
M  V30 6 C 0 0 0 0
M  V30 7 C 0 1.54 0 0
M  V30 8 C -1.3337 2.31 0 0
M  V30 9 O -2.6674 1.54 0 0
M  V30 10 O -1.3337 3.85 0 0
M  V30 END ATOM
M  V30 BEGIN BOND
M  V30 1 1 1 2
M  V30 2 1 2 3
M  V30 3 2 3 4
M  V30 4 1 4 5
M  V30 5 2 5 6
M  V30 6 1 6 7
M  V30 7 2 2 7
M  V30 8 1 7 8
M  V30 9 2 8 9
M  V30 10 1 8 10
M  V30 END BOND
M  V30 END CTAB
M  END
>  <Catalog ID>
Z104495626

>  <MW>
136.052

>  <MW (desalted)>
136.148

>  <ClogP>
2.084

>  <logS>
-2.02

>  <HBD>
1

>  <HBA>
2

>  <TPSA>
37.3

>  <RotBonds>
1

$$$$

  Mrv2205 11102315382D          

  0  0  0     0  0            999 V3000
M  V30 BEGIN CTAB
M  V30 COUNTS 10 11 0 0 0
M  V30 BEGIN ATOM
M  V30 1 C -0.3196 -1.3028 0 0
M  V30 2 C 1.2204 -1.3028 0 0
M  V30 3 N 2.1256 -0.0569 0 0
M  V30 4 C 3.5902 -0.5328 0 0
M  V30 5 C 4.9239 0.2372 0 0
M  V30 6 C 6.2576 -0.5328 0 0
M  V30 7 C 6.2576 -2.0728 0 0
M  V30 8 C 4.9239 -2.8428 0 0
M  V30 9 C 3.5902 -2.0728 0 0
M  V30 10 N 2.1256 -2.5487 0 0
M  V30 END ATOM
M  V30 BEGIN BOND
M  V30 1 1 1 2
M  V30 2 2 2 3
M  V30 3 1 3 4
M  V30 4 1 4 5
M  V30 5 2 5 6
M  V30 6 1 6 7
M  V30 7 2 7 8
M  V30 8 1 8 9
M  V30 9 2 4 9
M  V30 10 1 9 10
M  V30 11 1 2 10
M  V30 END BOND
M  V30 END CTAB
M  END
>  <Catalog ID>
Z55692894

>  <MW>
132.069

>  <MW (desalted)>
132.163

>  <ClogP>
1.834

>  <logS>
-1.68

>  <HBD>
1

>  <HBA>
1

>  <TPSA>
28.68

>  <RotBonds>
0

$$$$

  Mrv2205 11102315382D          

  0  0  0     0  0            999 V3000
M  V30 BEGIN CTAB
M  V30 COUNTS 10 10 0 0 0
M  V30 BEGIN ATOM
M  V30 1 O 0 4.62 0 0
M  V30 2 C 1.3337 3.85 0 0
M  V30 3 O 2.6674 4.62 0 0
M  V30 4 C 1.3337 2.31 0 0
M  V30 5 C 2.6674 1.54 0 0
M  V30 6 C 2.6674 -0 0 0
M  V30 7 C 1.3337 -0.77 0 0
M  V30 8 C 0 0 0 0
M  V30 9 C 0 1.54 0 0
M  V30 10 F -1.3337 2.31 0 0
M  V30 END ATOM
M  V30 BEGIN BOND
M  V30 1 1 1 2
M  V30 2 2 2 3
M  V30 3 1 2 4
M  V30 4 1 4 5
M  V30 5 2 5 6
M  V30 6 1 6 7
M  V30 7 2 7 8
M  V30 8 1 8 9
M  V30 9 2 4 9
M  V30 10 1 9 10
M  V30 END BOND
M  V30 END CTAB
M  END
>  <Catalog ID>
Z57914061

>  <MW>
140.027

>  <MW (desalted)>
140.112

>  <ClogP>
1.766

>  <logS>
-1.8

>  <HBD>
1

>  <HBA>
2

>  <TPSA>
37.3

>  <RotBonds>
1

$$$$

  Mrv2205 11102315382D          

  0  0  0     0  0            999 V3000
M  V30 BEGIN CTAB
M  V30 COUNTS 11 11 0 0 0
M  V30 BEGIN ATOM
M  V30 1 N 1.3337 3.85 0 0
M  V30 2 C 1.3337 2.31 0 0
M  V30 3 C 2.6674 1.54 0 0
M  V30 4 C 2.6674 -0 0 0
M  V30 5 C 1.3337 -0.77 0 0
M  V30 6 F 1.3337 -2.31 0 0
M  V30 7 C 0 0 0 0
M  V30 8 C 0 1.54 0 0
M  V30 9 C -1.3337 2.31 0 0
M  V30 10 O -1.3337 3.85 0 0
M  V30 11 O -2.6674 1.54 0 0
M  V30 END ATOM
M  V30 BEGIN BOND
M  V30 1 1 1 2
M  V30 2 1 2 3
M  V30 3 2 3 4
M  V30 4 1 4 5
M  V30 5 1 5 6
M  V30 6 2 5 7
M  V30 7 1 7 8
M  V30 8 2 2 8
M  V30 9 1 8 9
M  V30 10 2 9 10
M  V30 11 1 9 11
M  V30 END BOND
M  V30 END CTAB
M  END
>  <Catalog ID>
Z56946871

>  <MW>
155.038

>  <MW (desalted)>
155.126

>  <ClogP>
1.478

>  <logS>
-1.63

>  <HBD>
2

>  <HBA>
3

>  <TPSA>
63.32

>  <RotBonds>
1

$$$$

  Mrv2205 11102315382D          

  0  0  0     0  0            999 V3000
M  V30 BEGIN CTAB
M  V30 COUNTS 11 11 0 0 0
M  V30 BEGIN ATOM
M  V30 1 N 0 4.62 0 0
M  V30 2 C 1.3337 3.85 0 0
M  V30 3 O 2.6674 4.62 0 0
M  V30 4 C 1.3337 2.31 0 0
M  V30 5 C 2.6674 1.54 0 0
M  V30 6 C 2.6674 -0 0 0
M  V30 7 Cl 4.001 -0.77 0 0
M  V30 8 C 1.3337 -0.77 0 0
M  V30 9 C 0 0 0 0
M  V30 10 C 0 1.54 0 0
M  V30 11 N -1.3337 2.31 0 0
M  V30 END ATOM
M  V30 BEGIN BOND
M  V30 1 1 1 2
M  V30 2 2 2 3
M  V30 3 1 2 4
M  V30 4 1 4 5
M  V30 5 2 5 6
M  V30 6 1 6 7
M  V30 7 1 6 8
M  V30 8 2 8 9
M  V30 9 1 9 10
M  V30 10 2 4 10
M  V30 11 1 10 11
M  V30 END BOND
M  V30 END CTAB
M  END
>  <Catalog ID>
Z239125320

>  <MW>
170.025

>  <MW (desalted)>
170.596

>  <ClogP>
1.209

>  <logS>
-2.17

>  <HBD>
2

>  <HBA>
2

>  <TPSA>
69.11

>  <RotBonds>
1

$$$$

  Mrv2205 11102315382D          

  0  0  0     0  0            999 V3000
M  V30 BEGIN CTAB
M  V30 COUNTS 11 11 0 0 0
M  V30 BEGIN ATOM
M  V30 1 O -1.3337 6.93 0 0
M  V30 2 C 0 6.16 0 0
M  V30 3 O 1.3337 6.93 0 0
M  V30 4 C 0 4.62 0 0
M  V30 5 O 1.3337 3.85 0 0
M  V30 6 C 1.3337 2.31 0 0
M  V30 7 C 2.6674 1.54 0 0
M  V30 8 C 2.6674 -0 0 0
M  V30 9 C 1.3337 -0.77 0 0
M  V30 10 C 0 0 0 0
M  V30 11 C 0 1.54 0 0
M  V30 END ATOM
M  V30 BEGIN BOND
M  V30 1 1 1 2
M  V30 2 2 2 3
M  V30 3 1 2 4
M  V30 4 1 4 5
M  V30 5 1 5 6
M  V30 6 1 6 7
M  V30 7 1 7 8
M  V30 8 1 8 9
M  V30 9 1 9 10
M  V30 10 1 10 11
M  V30 11 1 6 11
M  V30 END BOND
M  V30 END CTAB
M  END
>  <Catalog ID>
Z316258722

>  <MW>
158.094

>  <MW (desalted)>
158.195

>  <ClogP>
1.64

>  <logS>
-1.16

>  <HBD>
1

>  <HBA>
3

>  <TPSA>
46.53

>  <RotBonds>
3

$$$$

  Mrv2205 11102315382D          

  0  0  0     0  0            999 V3000
M  V30 BEGIN CTAB
M  V30 COUNTS 12 13 0 0 0
M  V30 BEGIN ATOM
M  V30 1 N 0 -3.08 0 0
M  V30 2 C 1.3337 -2.31 0 0
M  V30 3 C 1.3337 -0.77 0 0
M  V30 4 C 2.6674 0 0 0
M  V30 5 C 4.001 -0.77 0 0
M  V30 6 O 5.3347 0 0 0
M  V30 7 C 6.6684 -0.77 0 0
M  V30 8 O 8.0021 -0 0 0
M  V30 9 C 6.6684 -2.31 0 0
M  V30 10 C 5.3347 -3.08 0 0
M  V30 11 C 4.001 -2.31 0 0
M  V30 12 C 2.6674 -3.08 0 0
M  V30 END ATOM
M  V30 BEGIN BOND
M  V30 1 1 1 2
M  V30 2 1 2 3
M  V30 3 2 3 4
M  V30 4 1 4 5
M  V30 5 1 5 6
M  V30 6 1 6 7
M  V30 7 2 7 8
M  V30 8 1 7 9
M  V30 9 2 9 10
M  V30 10 1 10 11
M  V30 11 2 5 11
M  V30 12 1 11 12
M  V30 13 2 2 12
M  V30 END BOND
M  V30 END CTAB
M  END
>  <Catalog ID>
Z56754502

>  <MW>
161.048

>  <MW (desalted)>
161.157

>  <ClogP>
1.014

>  <logS>
-2.38

>  <HBD>
1

>  <HBA>
2

>  <TPSA>
52.32

>  <RotBonds>
0

$$$$

  Mrv2205 11102315382D          

  0  0  0     0  0            999 V3000
M  V30 BEGIN CTAB
M  V30 COUNTS 11 11 0 0 0
M  V30 BEGIN ATOM
M  V30 1 N 0 6.16 0 0
M  V30 2 N 0 4.62 0 0
M  V30 3 C 1.3337 3.85 0 0
M  V30 4 O 2.6674 4.62 0 0
M  V30 5 C 1.3337 2.31 0 0
M  V30 6 C 2.6674 1.54 0 0
M  V30 7 C 2.6674 -0 0 0
M  V30 8 C 1.3337 -0.77 0 0
M  V30 9 O 1.3337 -2.31 0 0
M  V30 10 C 0 0 0 0
M  V30 11 C 0 1.54 0 0
M  V30 END ATOM
M  V30 BEGIN BOND
M  V30 1 1 1 2
M  V30 2 1 2 3
M  V30 3 2 3 4
M  V30 4 1 3 5
M  V30 5 1 5 6
M  V30 6 2 6 7
M  V30 7 1 7 8
M  V30 8 1 8 9
M  V30 9 2 8 10
M  V30 10 1 10 11
M  V30 11 2 5 11
M  V30 END BOND
M  V30 END CTAB
M  END
>  <Catalog ID>
Z57036327

>  <MW>
152.059

>  <MW (desalted)>
152.151

>  <ClogP>
-0.063

>  <logS>
-1.26

>  <HBD>
3

>  <HBA>
3

>  <TPSA>
75.35

>  <RotBonds>
1

$$$$

  Mrv2205 11102315382D          

  0  0  0     0  0            999 V3000
M  V30 BEGIN CTAB
M  V30 COUNTS 9 9 0 0 0
M  V30 BEGIN ATOM
M  V30 1 O -0.2739 5.93 0 0
M  V30 2 C -0.2739 4.39 0 0
M  V30 3 O -1.6075 3.62 0 0
M  V30 4 C 1.0598 3.62 0 0
M  V30 5 C 1.0598 2.08 0 0
M  V30 6 C 2.3057 1.1748 0 0
M  V30 7 C 1.8298 -0.2898 0 0
M  V30 8 C 0.2898 -0.2898 0 0
M  V30 9 S -0.1861 1.1748 0 0
M  V30 END ATOM
M  V30 BEGIN BOND
M  V30 1 1 1 2
M  V30 2 2 2 3
M  V30 3 1 2 4
M  V30 4 1 4 5
M  V30 5 2 5 6
M  V30 6 1 6 7
M  V30 7 2 7 8
M  V30 8 1 8 9
M  V30 9 1 5 9
M  V30 END BOND
M  V30 END CTAB
M  END
>  <Catalog ID>
Z104473344

>  <MW>
142.009

>  <MW (desalted)>
142.176

>  <ClogP>
1.06

>  <logS>
-1.04

>  <HBD>
1

>  <HBA>
2

>  <TPSA>
37.3

>  <RotBonds>
2

$$$$

  Mrv2205 11102315382D          

  0  0  0     0  0            999 V3000
M  V30 BEGIN CTAB
M  V30 COUNTS 9 10 0 0 0
M  V30 BEGIN ATOM
M  V30 1 C 1.2204 -1.3028 0 0
M  V30 2 C 2.1256 -0.0569 0 0
M  V30 3 C 3.5902 -0.5328 0 0
M  V30 4 C 4.9239 0.2372 0 0
M  V30 5 C 6.2576 -0.5328 0 0
M  V30 6 C 6.2576 -2.0728 0 0
M  V30 7 N 4.9239 -2.8428 0 0
M  V30 8 C 3.5902 -2.0728 0 0
M  V30 9 N 2.1256 -2.5487 0 0
M  V30 END ATOM
M  V30 BEGIN BOND
M  V30 1 2 1 2
M  V30 2 1 2 3
M  V30 3 1 3 4
M  V30 4 2 4 5
M  V30 5 1 5 6
M  V30 6 2 6 7
M  V30 7 1 7 8
M  V30 8 2 3 8
M  V30 9 1 8 9
M  V30 10 1 1 9
M  V30 END BOND
M  V30 END CTAB
M  END
>  <Catalog ID>
Z271099378

>  <MW>
118.053

>  <MW (desalted)>
118.136

>  <ClogP>
1.175

>  <logS>
-2.05

>  <HBD>
1

>  <HBA>
1

>  <TPSA>
28.68

>  <RotBonds>
0

$$$$

  Mrv2205 11102315382D          

  0  0  0     0  0            999 V3000
M  V30 BEGIN CTAB
M  V30 COUNTS 10 10 0 0 0
M  V30 BEGIN ATOM
M  V30 1 N 0 4.62 0 0
M  V30 2 C 1.3337 3.85 0 0
M  V30 3 O 2.6674 4.62 0 0
M  V30 4 C 1.3337 2.31 0 0
M  V30 5 C 2.6674 1.54 0 0
M  V30 6 C 2.6674 -0 0 0
M  V30 7 C 1.3337 -0.77 0 0
M  V30 8 C 0 0 0 0
M  V30 9 C 0 1.54 0 0
M  V30 10 N -1.3337 2.31 0 0
M  V30 END ATOM
M  V30 BEGIN BOND
M  V30 1 1 1 2
M  V30 2 2 2 3
M  V30 3 1 2 4
M  V30 4 1 4 5
M  V30 5 2 5 6
M  V30 6 1 6 7
M  V30 7 2 7 8
M  V30 8 1 8 9
M  V30 9 2 4 9
M  V30 10 1 9 10
M  V30 END BOND
M  V30 END CTAB
M  END
>  <Catalog ID>
Z57036632

>  <MW>
136.064

>  <MW (desalted)>
136.151

>  <ClogP>
0.348

>  <logS>
-1.39

>  <HBD>
2

>  <HBA>
2

>  <TPSA>
69.11

>  <RotBonds>
1

$$$$

  Mrv2205 11102315382D          

  0  0  0     0  0            999 V3000
M  V30 BEGIN CTAB
M  V30 COUNTS 11 12 0 0 0
M  V30 BEGIN ATOM
M  V30 1 N -0.3196 -1.3028 0 0
M  V30 2 C 1.2204 -1.3028 0 0
M  V30 3 N 2.1256 -0.0569 0 0
M  V30 4 C 3.5902 -0.5328 0 0
M  V30 5 C 4.9239 0.2372 0 0
M  V30 6 C 6.2576 -0.5328 0 0
M  V30 7 C 6.2576 -2.0728 0 0
M  V30 8 F 7.5913 -2.8428 0 0
M  V30 9 C 4.9239 -2.8428 0 0
M  V30 10 C 3.5902 -2.0728 0 0
M  V30 11 S 2.1256 -2.5487 0 0
M  V30 END ATOM
M  V30 BEGIN BOND
M  V30 1 1 1 2
M  V30 2 2 2 3
M  V30 3 1 3 4
M  V30 4 1 4 5
M  V30 5 2 5 6
M  V30 6 1 6 7
M  V30 7 1 7 8
M  V30 8 2 7 9
M  V30 9 1 9 10
M  V30 10 2 4 10
M  V30 11 1 10 11
M  V30 12 1 2 11
M  V30 END BOND
M  V30 END CTAB
M  END
>  <Catalog ID>
Z56899125

>  <MW>
168.016

>  <MW (desalted)>
168.191

>  <ClogP>
1.975

>  <logS>
-2.81

>  <HBD>
1

>  <HBA>
2

>  <TPSA>
38.91

>  <RotBonds>
0

$$$$

  Mrv2205 11102315382D          

  0  0  0     0  0            999 V3000
M  V30 BEGIN CTAB
M  V30 COUNTS 12 13 0 0 0
M  V30 BEGIN ATOM
M  V30 1 O -0.8454 -1.8096 0 0
M  V30 2 C -0.0754 -0.4759 0 0
M  V30 3 O -0.8454 0.8578 0 0
M  V30 4 C 1.4646 -0.4759 0 0
M  V30 5 C 2.3698 0.77 0 0
M  V30 6 C 3.8344 0.2941 0 0
M  V30 7 C 5.2991 0.77 0 0
M  V30 8 C 6.2043 -0.4759 0 0
M  V30 9 Cl 7.7443 -0.4759 0 0
M  V30 10 S 5.2991 -1.7218 0 0
M  V30 11 C 3.8344 -1.2459 0 0
M  V30 12 N 2.3698 -1.7218 0 0
M  V30 END ATOM
M  V30 BEGIN BOND
M  V30 1 1 1 2
M  V30 2 2 2 3
M  V30 3 1 2 4
M  V30 4 2 4 5
M  V30 5 1 5 6
M  V30 6 1 6 7
M  V30 7 2 7 8
M  V30 8 1 8 9
M  V30 9 1 8 10
M  V30 10 1 10 11
M  V30 11 2 6 11
M  V30 12 1 11 12
M  V30 13 1 4 12
M  V30 END BOND
M  V30 END CTAB
M  END
>  <Catalog ID>
Z1508918230

>  <MW>
200.965

>  <MW (desalted)>
201.63

>  <ClogP>
2.611

>  <logS>
-4.3

>  <HBD>
2

>  <HBA>
2

>  <TPSA>
53.09

>  <RotBonds>
1

$$$$

  Mrv2205 11102315382D          

  0  0  0     0  0            999 V3000
M  V30 BEGIN CTAB
M  V30 COUNTS 13 13 0 0 0
M  V30 BEGIN ATOM
M  V30 1 N 1.3337 5.39 0 0
M  V30 2 S 1.3337 3.85 0 0
M  V30 3 O -0.2063 3.85 0 0
M  V30 4 O 2.8737 3.85 0 0
M  V30 5 C 1.3337 2.31 0 0
M  V30 6 C 2.6674 1.54 0 0
M  V30 7 C 2.6674 -0 0 0
M  V30 8 C 1.3337 -0.77 0 0
M  V30 9 C 0 0 0 0
M  V30 10 C 0 1.54 0 0
M  V30 11 C 1.3337 -2.31 0 0
M  V30 12 O 2.6674 -3.08 0 0
M  V30 13 O -0 -3.08 0 0
M  V30 END ATOM
M  V30 BEGIN BOND
M  V30 1 1 1 2
M  V30 2 2 2 3
M  V30 3 2 2 4
M  V30 4 1 2 5
M  V30 5 1 5 6
M  V30 6 2 6 7
M  V30 7 1 7 8
M  V30 8 2 8 9
M  V30 9 1 9 10
M  V30 10 2 5 10
M  V30 11 1 8 11
M  V30 12 2 11 12
M  V30 13 1 11 13
M  V30 END BOND
M  V30 END CTAB
M  END
>  <Catalog ID>
Z53021532

>  <MW>
201.01

>  <MW (desalted)>
201.2

>  <ClogP>
0.452

>  <logS>
-1.48

>  <HBD>
2

>  <HBA>
4

>  <TPSA>
97.46

>  <RotBonds>
2

$$$$

  Mrv2205 11102315382D          

  0  0  0     0  0            999 V3000
M  V30 BEGIN CTAB
M  V30 COUNTS 9 9 0 0 0
M  V30 BEGIN ATOM
M  V30 1 N 1.0598 5.16 0 0
M  V30 2 S 1.0598 3.62 0 0
M  V30 3 O -0.4802 3.62 0 0
M  V30 4 O 2.5998 3.62 0 0
M  V30 5 C 1.0598 2.08 0 0
M  V30 6 N 2.3057 1.1748 0 0
M  V30 7 C 1.8298 -0.2898 0 0
M  V30 8 C 0.2898 -0.2898 0 0
M  V30 9 N -0.1861 1.1748 0 0
M  V30 END ATOM
M  V30 BEGIN BOND
M  V30 1 1 1 2
M  V30 2 2 2 3
M  V30 3 2 2 4
M  V30 4 1 2 5
M  V30 5 2 5 6
M  V30 6 1 6 7
M  V30 7 2 7 8
M  V30 8 1 8 9
M  V30 9 1 5 9
M  V30 END BOND
M  V30 END CTAB
M  END
>  <Catalog ID>
Z1203748449

>  <MW>
147.01

>  <MW (desalted)>
147.156

>  <ClogP>
-0.845

>  <logS>
-0.8

>  <HBD>
2

>  <HBA>
3

>  <TPSA>
88.84

>  <RotBonds>
1

$$$$

  Mrv2205 11102315382D          

  0  0  0     0  0            999 V3000
M  V30 BEGIN CTAB
M  V30 COUNTS 10 10 0 0 0
M  V30 BEGIN ATOM
M  V30 1 O 0 4.62 0 0
M  V30 2 C 1.3337 3.85 0 0
M  V30 3 O 2.6674 4.62 0 0
M  V30 4 C 1.3337 2.31 0 0
M  V30 5 C 2.6674 1.54 0 0
M  V30 6 C 2.6674 -0 0 0
M  V30 7 C 1.3337 -0.77 0 0
M  V30 8 Br 1.3337 -2.31 0 0
M  V30 9 C 0 0 0 0
M  V30 10 C 0 1.54 0 0
M  V30 END ATOM
M  V30 BEGIN BOND
M  V30 1 1 1 2
M  V30 2 2 2 3
M  V30 3 1 2 4
M  V30 4 1 4 5
M  V30 5 2 5 6
M  V30 6 1 6 7
M  V30 7 1 7 8
M  V30 8 2 7 9
M  V30 9 1 9 10
M  V30 10 2 4 10
M  V30 END BOND
M  V30 END CTAB
M  END
>  <Catalog ID>
Z57127530

>  <MW>
199.947

>  <MW (desalted)>
201.017

>  <ClogP>
2.846

>  <logS>
-2.65

>  <HBD>
1

>  <HBA>
2

>  <TPSA>
37.3

>  <RotBonds>
1

$$$$

  Mrv2205 11102315382D          

  0  0  0     0  0            999 V3000
M  V30 BEGIN CTAB
M  V30 COUNTS 10 11 0 0 0
M  V30 BEGIN ATOM
M  V30 1 N -0.3196 -1.3028 0 0
M  V30 2 C 1.2204 -1.3028 0 0
M  V30 3 N 2.1256 -0.0569 0 0
M  V30 4 C 3.5902 -0.5328 0 0
M  V30 5 C 4.9239 0.2372 0 0
M  V30 6 C 6.2576 -0.5328 0 0
M  V30 7 C 6.2576 -2.0728 0 0
M  V30 8 C 4.9239 -2.8428 0 0
M  V30 9 C 3.5902 -2.0728 0 0
M  V30 10 N 2.1256 -2.5487 0 0
M  V30 END ATOM
M  V30 BEGIN BOND
M  V30 1 1 1 2
M  V30 2 2 2 3
M  V30 3 1 3 4
M  V30 4 1 4 5
M  V30 5 2 5 6
M  V30 6 1 6 7
M  V30 7 2 7 8
M  V30 8 1 8 9
M  V30 9 2 4 9
M  V30 10 1 9 10
M  V30 11 1 2 10
M  V30 END BOND
M  V30 END CTAB
M  END
>  <Catalog ID>
Z104378302

>  <MW>
133.064

>  <MW (desalted)>
133.151

>  <ClogP>
1.238

>  <logS>
-2.35

>  <HBD>
2

>  <HBA>
2

>  <TPSA>
54.7

>  <RotBonds>
0

$$$$

  Mrv2205 11102315382D          

  0  0  0     0  0            999 V3000
M  V30 BEGIN CTAB
M  V30 COUNTS 10 10 0 0 0
M  V30 BEGIN ATOM
M  V30 1 C 1.3337 3.85 0 0
M  V30 2 C 1.3337 2.31 0 0
M  V30 3 C 2.6674 1.54 0 0
M  V30 4 C 2.6674 -0 0 0
M  V30 5 C 1.3337 -0.77 0 0
M  V30 6 C 0 0 0 0
M  V30 7 N 0 1.54 0 0
M  V30 8 C 1.3337 -2.31 0 0
M  V30 9 O 2.6674 -3.08 0 0
M  V30 10 N -0 -3.08 0 0
M  V30 END ATOM
M  V30 BEGIN BOND
M  V30 1 1 1 2
M  V30 2 1 2 3
M  V30 3 2 3 4
M  V30 4 1 4 5
M  V30 5 2 5 6
M  V30 6 1 6 7
M  V30 7 2 2 7
M  V30 8 1 5 8
M  V30 9 2 8 9
M  V30 10 1 8 10
M  V30 END BOND
M  V30 END CTAB
M  END
>  <Catalog ID>
Z57493539

>  <MW>
136.064

>  <MW (desalted)>
136.151

>  <ClogP>
0.293

>  <logS>
-0.61

>  <HBD>
1

>  <HBA>
2

>  <TPSA>
55.98

>  <RotBonds>
1

$$$$

  Mrv2205 11102315382D          

  0  0  0     0  0            999 V3000
M  V30 BEGIN CTAB
M  V30 COUNTS 12 12 0 0 0
M  V30 BEGIN ATOM
M  V30 1 C 1.3337 3.85 0 0
M  V30 2 C 1.3337 2.31 0 0
M  V30 3 C 2.6674 1.54 0 0
M  V30 4 C 2.6674 -0 0 0
M  V30 5 C 1.3337 -0.77 0 0
M  V30 6 C 1.3337 -2.31 0 0
M  V30 7 C 2.6674 -3.08 0 0
M  V30 8 C 2.6674 -4.62 0 0
M  V30 9 O 4.001 -5.39 0 0
M  V30 10 O 1.3337 -5.39 0 0
M  V30 11 C 0 0 0 0
M  V30 12 C 0 1.54 0 0
M  V30 END ATOM
M  V30 BEGIN BOND
M  V30 1 1 1 2
M  V30 2 1 2 3
M  V30 3 2 3 4
M  V30 4 1 4 5
M  V30 5 1 5 6
M  V30 6 1 6 7
M  V30 7 1 7 8
M  V30 8 2 8 9
M  V30 9 1 8 10
M  V30 10 2 5 11
M  V30 11 1 11 12
M  V30 12 2 2 12
M  V30 END BOND
M  V30 END CTAB
M  END
>  <Catalog ID>
Z169855336

>  <MW>
164.084

>  <MW (desalted)>
164.201

>  <ClogP>
2.402

>  <logS>
-1.86

>  <HBD>
1

>  <HBA>
2

>  <TPSA>
37.3

>  <RotBonds>
3

$$$$

  Mrv2205 11102315382D          

  0  0  0     0  0            999 V3000
M  V30 BEGIN CTAB
M  V30 COUNTS 14 14 0 0 0
M  V30 BEGIN ATOM
M  V30 1 Cl 0 0 0 0
M  V30 2 N 4.4 -3.5894 0 0
M  V30 3 C 4.8759 -2.1248 0 0
M  V30 4 C 6.3822 -1.8046 0 0
M  V30 5 C 6.8581 -0.34 0 0
M  V30 6 C 5.9529 0.9059 0 0
M  V30 7 N 6.8581 2.1518 0 0
M  V30 8 C 8.3227 1.6759 0 0
M  V30 9 C 9.6564 2.4459 0 0
M  V30 10 C 10.9901 1.6759 0 0
M  V30 11 C 10.9901 0.1359 0 0
M  V30 12 F 12.3238 -0.6341 0 0
M  V30 13 C 9.6564 -0.6341 0 0
M  V30 14 C 8.3227 0.1359 0 0
M  V30 END ATOM
M  V30 BEGIN BOND
M  V30 1 1 2 3
M  V30 2 1 3 4
M  V30 3 1 4 5
M  V30 4 2 5 6
M  V30 5 1 6 7
M  V30 6 1 7 8
M  V30 7 1 8 9
M  V30 8 2 9 10
M  V30 9 1 10 11
M  V30 10 1 11 12
M  V30 11 2 11 13
M  V30 12 1 13 14
M  V30 13 1 5 14
M  V30 14 2 8 14
M  V30 END BOND
M  V30 END CTAB
M  END
>  <Catalog ID>
Z1741960310

>  <MW>
214.067

>  <MW (desalted)>
178.206

>  <ClogP>
1.734

>  <logS>
-2.77

>  <HBD>
2

>  <HBA>
1

>  <TPSA>
41.81

>  <RotBonds>
2

$$$$

  Mrv2205 11102315382D          

  0  0  0     0  0            999 V3000
M  V30 BEGIN CTAB
M  V30 COUNTS 14 15 0 0 0
M  V30 BEGIN ATOM
M  V30 1 O -3.3996 -3.9702 0 0
M  V30 2 C -2.6296 -2.6365 0 0
M  V30 3 O -3.3996 -1.3028 0 0
M  V30 4 C -1.0896 -2.6365 0 0
M  V30 5 C -0.3196 -1.3028 0 0
M  V30 6 C 1.2204 -1.3028 0 0
M  V30 7 N 2.1256 -0.0569 0 0
M  V30 8 C 3.5902 -0.5328 0 0
M  V30 9 C 4.9239 0.2372 0 0
M  V30 10 C 6.2576 -0.5328 0 0
M  V30 11 C 6.2576 -2.0728 0 0
M  V30 12 C 4.9239 -2.8428 0 0
M  V30 13 C 3.5902 -2.0728 0 0
M  V30 14 N 2.1256 -2.5487 0 0
M  V30 END ATOM
M  V30 BEGIN BOND
M  V30 1 1 1 2
M  V30 2 2 2 3
M  V30 3 1 2 4
M  V30 4 1 4 5
M  V30 5 1 5 6
M  V30 6 2 6 7
M  V30 7 1 7 8
M  V30 8 1 8 9
M  V30 9 2 9 10
M  V30 10 1 10 11
M  V30 11 2 11 12
M  V30 12 1 12 13
M  V30 13 2 8 13
M  V30 14 1 13 14
M  V30 15 1 6 14
M  V30 END BOND
M  V30 END CTAB
M  END
>  <Catalog ID>
Z57115077

>  <MW>
190.074

>  <MW (desalted)>
190.199

>  <ClogP>
1.096

>  <logS>
-1.5

>  <HBD>
2

>  <HBA>
3

>  <TPSA>
65.98

>  <RotBonds>
3

$$$$

  Mrv2205 11102315382D          

  0  0  0     0  0            999 V3000
M  V30 BEGIN CTAB
M  V30 COUNTS 14 15 0 0 0
M  V30 BEGIN ATOM
M  V30 1 N -1.8389 -6.1183 0 0
M  V30 2 C -0.3325 -5.7982 0 0
M  V30 3 O 0.698 -6.9426 0 0
M  V30 4 C 0.1434 -4.3335 0 0
M  V30 5 C 1.6497 -4.0133 0 0
M  V30 6 N 2.1256 -2.5487 0 0
M  V30 7 C 1.2204 -1.3028 0 0
M  V30 8 N 2.1256 -0.0569 0 0
M  V30 9 C 3.5902 -0.5328 0 0
M  V30 10 C 4.9239 0.2372 0 0
M  V30 11 C 6.2576 -0.5328 0 0
M  V30 12 C 6.2576 -2.0728 0 0
M  V30 13 C 4.9239 -2.8428 0 0
M  V30 14 C 3.5902 -2.0728 0 0
M  V30 END ATOM
M  V30 BEGIN BOND
M  V30 1 1 1 2
M  V30 2 2 2 3
M  V30 3 1 2 4
M  V30 4 1 4 5
M  V30 5 1 5 6
M  V30 6 1 6 7
M  V30 7 2 7 8
M  V30 8 1 8 9
M  V30 9 1 9 10
M  V30 10 2 10 11
M  V30 11 1 11 12
M  V30 12 2 12 13
M  V30 13 1 13 14
M  V30 14 1 6 14
M  V30 15 2 9 14
M  V30 END BOND
M  V30 END CTAB
M  END
>  <Catalog ID>
Z53116464

>  <MW>
189.09

>  <MW (desalted)>
189.214

>  <ClogP>
0.481

>  <logS>
-1.42

>  <HBD>
1

>  <HBA>
2

>  <TPSA>
60.91

>  <RotBonds>
3

$$$$

  Mrv2205 11102315382D          

  0  0  0     0  0            999 V3000
M  V30 BEGIN CTAB
M  V30 COUNTS 10 10 0 0 0
M  V30 BEGIN ATOM
M  V30 1 O 0 4.62 0 0
M  V30 2 C 1.3337 3.85 0 0
M  V30 3 O 2.6674 4.62 0 0
M  V30 4 C 1.3337 2.31 0 0
M  V30 5 C 2.6674 1.54 0 0
M  V30 6 C 2.6674 -0 0 0
M  V30 7 C 1.3337 -0.77 0 0
M  V30 8 C 0 0 0 0
M  V30 9 Cl -1.3337 -0.77 0 0
M  V30 10 C 0 1.54 0 0
M  V30 END ATOM
M  V30 BEGIN BOND
M  V30 1 1 1 2
M  V30 2 2 2 3
M  V30 3 1 2 4
M  V30 4 1 4 5
M  V30 5 2 5 6
M  V30 6 1 6 7
M  V30 7 2 7 8
M  V30 8 1 8 9
M  V30 9 1 8 10
M  V30 10 2 4 10
M  V30 END BOND
M  V30 END CTAB
M  END
>  <Catalog ID>
Z104474062

>  <MW>
155.998

>  <MW (desalted)>
156.566

>  <ClogP>
2.696

>  <logS>
-2.28

>  <HBD>
1

>  <HBA>
2

>  <TPSA>
37.3

>  <RotBonds>
1

$$$$

  Mrv2205 11102315382D          

  0  0  0     0  0            999 V3000
M  V30 BEGIN CTAB
M  V30 COUNTS 10 11 0 0 0
M  V30 BEGIN ATOM
M  V30 1 C 7.5913 4.3828 0 0
M  V30 2 C 6.2576 3.6128 0 0
M  V30 3 C 6.2576 2.0728 0 0
M  V30 4 C 4.9239 1.3028 0 0
M  V30 5 C 3.5902 2.0728 0 0
M  V30 6 N 2.1256 1.5969 0 0
M  V30 7 C 1.2204 2.8428 0 0
M  V30 8 C 2.1256 4.0887 0 0
M  V30 9 C 3.5902 3.6128 0 0
M  V30 10 C 4.9239 4.3828 0 0
M  V30 END ATOM
M  V30 BEGIN BOND
M  V30 1 1 1 2
M  V30 2 1 2 3
M  V30 3 2 3 4
M  V30 4 1 4 5
M  V30 5 1 5 6
M  V30 6 1 6 7
M  V30 7 2 7 8
M  V30 8 1 8 9
M  V30 9 2 5 9
M  V30 10 1 9 10
M  V30 11 2 2 10
M  V30 END BOND
M  V30 END CTAB
M  END
>  <Catalog ID>
Z979311300

>  <MW>
131.073

>  <MW (desalted)>
131.174

>  <ClogP>
2.631

>  <logS>
-2.761

>  <HBD>
1

>  <HBA>
0

>  <TPSA>
15.79

>  <RotBonds>
0

$$$$

  Mrv2205 11102315382D          

  0  0  0     0  0            999 V3000
M  V30 BEGIN CTAB
M  V30 COUNTS 11 12 0 0 0
M  V30 BEGIN ATOM
M  V30 1 F 7.5913 4.3828 0 0
M  V30 2 C 6.2576 3.6128 0 0
M  V30 3 C 6.2576 2.0728 0 0
M  V30 4 C 4.9239 1.3028 0 0
M  V30 5 F 4.9239 -0.2372 0 0
M  V30 6 C 3.5902 2.0728 0 0
M  V30 7 N 2.1256 1.5969 0 0
M  V30 8 C 1.2204 2.8428 0 0
M  V30 9 C 2.1256 4.0887 0 0
M  V30 10 C 3.5902 3.6128 0 0
M  V30 11 C 4.9239 4.3828 0 0
M  V30 END ATOM
M  V30 BEGIN BOND
M  V30 1 1 1 2
M  V30 2 1 2 3
M  V30 3 2 3 4
M  V30 4 1 4 5
M  V30 5 1 4 6
M  V30 6 1 6 7
M  V30 7 1 7 8
M  V30 8 2 8 9
M  V30 9 1 9 10
M  V30 10 2 6 10
M  V30 11 1 10 11
M  V30 12 2 2 11
M  V30 END BOND
M  V30 END CTAB
M  END
>  <Catalog ID>
Z1201620809

>  <MW>
153.039

>  <MW (desalted)>
153.129

>  <ClogP>
2.645

>  <logS>
-2.84

>  <HBD>
1

>  <HBA>
0

>  <TPSA>
15.79

>  <RotBonds>
0

$$$$

  Mrv2205 11102315382D          

  0  0  0     0  0            999 V3000
M  V30 BEGIN CTAB
M  V30 COUNTS 13 14 0 0 0
M  V30 BEGIN ATOM
M  V30 1 C 0 -4.62 0 0
M  V30 2 C 0 -3.08 0 0
M  V30 3 N 1.3337 -2.31 0 0
M  V30 4 C 1.3337 -0.77 0 0
M  V30 5 C 2.6674 0 0 0
M  V30 6 C 4.001 -0.77 0 0
M  V30 7 C 5.3347 0 0 0
M  V30 8 N 5.3347 1.54 0 0
M  V30 9 C 6.6684 -0.77 0 0
M  V30 10 C 6.6684 -2.31 0 0
M  V30 11 C 5.3347 -3.08 0 0
M  V30 12 C 4.001 -2.31 0 0
M  V30 13 C 2.6674 -3.08 0 0
M  V30 END ATOM
M  V30 BEGIN BOND
M  V30 1 1 1 2
M  V30 2 1 2 3
M  V30 3 1 3 4
M  V30 4 1 4 5
M  V30 5 1 5 6
M  V30 6 1 6 7
M  V30 7 1 7 8
M  V30 8 2 7 9
M  V30 9 1 9 10
M  V30 10 2 10 11
M  V30 11 1 11 12
M  V30 12 2 6 12
M  V30 13 1 12 13
M  V30 14 1 3 13
M  V30 END BOND
M  V30 END CTAB
M  END
>  <Catalog ID>
Z728884102

>  <MW>
176.131

>  <MW (desalted)>
176.258

>  <ClogP>
1.343

>  <logS>
-1.16

>  <HBD>
1

>  <HBA>
2

>  <TPSA>
29.26

>  <RotBonds>
1

$$$$

  Mrv2205 11102315382D          

  0  0  0     0  0            999 V3000
M  V30 BEGIN CTAB
M  V30 COUNTS 19 21 0 0 0
M  V30 BEGIN ATOM
M  V30 1 O 2.6674 6.16 0 0
M  V30 2 C 2.6674 4.62 0 0
M  V30 3 O 1.3337 3.85 0 0
M  V30 4 C 4.001 3.85 0 0
M  V30 5 N 4.001 2.31 0 0
M  V30 6 C 5.3347 1.54 0 0
M  V30 7 C 6.6684 2.31 0 0
M  V30 8 C 8.0021 1.54 0 0
M  V30 9 C 8.0021 -0 0 0
M  V30 10 C 6.6684 -0.77 0 0
M  V30 11 C 5.3347 0 0 0
M  V30 12 C 4.001 -0.77 0 0
M  V30 13 O 4.001 -2.31 0 0
M  V30 14 C 2.6674 0 0 0
M  V30 15 C 1.3337 -0.77 0 0
M  V30 16 C -0 0 0 0
M  V30 17 C 0 1.54 0 0
M  V30 18 C 1.3337 2.31 0 0
M  V30 19 C 2.6674 1.54 0 0
M  V30 END ATOM
M  V30 BEGIN BOND
M  V30 1 1 1 2
M  V30 2 2 2 3
M  V30 3 1 2 4
M  V30 4 1 4 5
M  V30 5 1 5 6
M  V30 6 1 6 7
M  V30 7 2 7 8
M  V30 8 1 8 9
M  V30 9 2 9 10
M  V30 10 1 10 11
M  V30 11 2 6 11
M  V30 12 1 11 12
M  V30 13 2 12 13
M  V30 14 1 12 14
M  V30 15 1 14 15
M  V30 16 2 15 16
M  V30 17 1 16 17
M  V30 18 2 17 18
M  V30 19 1 18 19
M  V30 20 1 5 19
M  V30 21 2 14 19
M  V30 END BOND
M  V30 END CTAB
M  END
>  <Catalog ID>
Z57473348

>  <MW>
253.074

>  <MW (desalted)>
253.253

>  <ClogP>
1.314

>  <logS>
-3.35

>  <HBD>
1

>  <HBA>
4

>  <TPSA>
57.61

>  <RotBonds>
2

$$$$

  Mrv2205 11102315382D          

  0  0  0     0  0            999 V3000
M  V30 BEGIN CTAB
M  V30 COUNTS 11 11 0 0 0
M  V30 BEGIN ATOM
M  V30 1 O -1.3337 6.93 0 0
M  V30 2 C 0 6.16 0 0
M  V30 3 O 1.3337 6.93 0 0
M  V30 4 C 0 4.62 0 0
M  V30 5 C 1.3337 3.85 0 0
M  V30 6 C 1.3337 2.31 0 0
M  V30 7 C 2.6674 1.54 0 0
M  V30 8 C 2.6674 -0 0 0
M  V30 9 C 1.3337 -0.77 0 0
M  V30 10 C 0 0 0 0
M  V30 11 C 0 1.54 0 0
M  V30 END ATOM
M  V30 BEGIN BOND
M  V30 1 1 1 2
M  V30 2 2 2 3
M  V30 3 1 2 4
M  V30 4 1 4 5
M  V30 5 1 5 6
M  V30 6 1 6 7
M  V30 7 1 7 8
M  V30 8 1 8 9
M  V30 9 1 9 10
M  V30 10 1 10 11
M  V30 11 1 6 11
M  V30 END BOND
M  V30 END CTAB
M  END
>  <Catalog ID>
Z104479892

>  <MW>
156.115

>  <MW (desalted)>
156.222

>  <ClogP>
2.985

>  <logS>
-2.8

>  <HBD>
1

>  <HBA>
2

>  <TPSA>
37.3

>  <RotBonds>
3

$$$$

  Mrv2205 11102315382D          

  0  0  0     0  0            999 V3000
M  V30 BEGIN CTAB
M  V30 COUNTS 11 12 0 0 0
M  V30 BEGIN ATOM
M  V30 1 Cl 7.5913 4.3828 0 0
M  V30 2 C 6.2576 3.6128 0 0
M  V30 3 C 6.2576 2.0728 0 0
M  V30 4 C 4.9239 1.3028 0 0
M  V30 5 C 3.5902 2.0728 0 0
M  V30 6 C 2.1256 1.5969 0 0
M  V30 7 C 1.2204 2.8428 0 0
M  V30 8 O -0.3196 2.8428 0 0
M  V30 9 N 2.1256 4.0887 0 0
M  V30 10 C 3.5902 3.6128 0 0
M  V30 11 C 4.9239 4.3828 0 0
M  V30 END ATOM
M  V30 BEGIN BOND
M  V30 1 1 1 2
M  V30 2 1 2 3
M  V30 3 2 3 4
M  V30 4 1 4 5
M  V30 5 1 5 6
M  V30 6 1 6 7
M  V30 7 2 7 8
M  V30 8 1 7 9
M  V30 9 1 9 10
M  V30 10 2 5 10
M  V30 11 1 10 11
M  V30 12 2 2 11
M  V30 END BOND
M  V30 END CTAB
M  END
>  <Catalog ID>
Z56922083

>  <MW>
167.014

>  <MW (desalted)>
167.592

>  <ClogP>
1.678

>  <logS>
-1.93

>  <HBD>
1

>  <HBA>
1

>  <TPSA>
29.1

>  <RotBonds>
0

$$$$

  Mrv2205 11102315382D          

  0  0  0     0  0            999 V3000
M  V30 BEGIN CTAB
M  V30 COUNTS 11 12 0 0 0
M  V30 BEGIN ATOM
M  V30 1 N 0 -3.08 0 0
M  V30 2 C 1.3337 -2.31 0 0
M  V30 3 C 1.3337 -0.77 0 0
M  V30 4 N 2.6674 0 0 0
M  V30 5 C 4.001 -0.77 0 0
M  V30 6 C 5.3347 0 0 0
M  V30 7 C 6.6684 -0.77 0 0
M  V30 8 C 6.6684 -2.31 0 0
M  V30 9 C 5.3347 -3.08 0 0
M  V30 10 C 4.001 -2.31 0 0
M  V30 11 C 2.6674 -3.08 0 0
M  V30 END ATOM
M  V30 BEGIN BOND
M  V30 1 1 1 2
M  V30 2 1 2 3
M  V30 3 2 3 4
M  V30 4 1 4 5
M  V30 5 1 5 6
M  V30 6 2 6 7
M  V30 7 1 7 8
M  V30 8 2 8 9
M  V30 9 1 9 10
M  V30 10 2 5 10
M  V30 11 1 10 11
M  V30 12 2 2 11
M  V30 END BOND
M  V30 END CTAB
M  END
>  <Catalog ID>
Z234895085

>  <MW>
144.069

>  <MW (desalted)>
144.173

>  <ClogP>
1.702

>  <logS>
-1.85

>  <HBD>
1

>  <HBA>
2

>  <TPSA>
38.91

>  <RotBonds>
0

$$$$

  Mrv2205 11102315382D          

  0  0  0     0  0            999 V3000
M  V30 BEGIN CTAB
M  V30 COUNTS 11 11 0 0 0
M  V30 BEGIN ATOM
M  V30 1 N 1.3337 3.85 0 0
M  V30 2 C 1.3337 2.31 0 0
M  V30 3 C 2.6674 1.54 0 0
M  V30 4 C 2.6674 -0 0 0
M  V30 5 C 1.3337 -0.77 0 0
M  V30 6 C 0 0 0 0
M  V30 7 F -1.3337 -0.77 0 0
M  V30 8 C 0 1.54 0 0
M  V30 9 C -1.3337 2.31 0 0
M  V30 10 O -2.6674 1.54 0 0
M  V30 11 O -1.3337 3.85 0 0
M  V30 END ATOM
M  V30 BEGIN BOND
M  V30 1 1 1 2
M  V30 2 1 2 3
M  V30 3 2 3 4
M  V30 4 1 4 5
M  V30 5 2 5 6
M  V30 6 1 6 7
M  V30 7 1 6 8
M  V30 8 2 2 8
M  V30 9 1 8 9
M  V30 10 2 9 10
M  V30 11 1 9 11
M  V30 END BOND
M  V30 END CTAB
M  END
>  <Catalog ID>
Z424764636

>  <MW>
155.038

>  <MW (desalted)>
155.126

>  <ClogP>
1.118

>  <logS>
-1.63

>  <HBD>
2

>  <HBA>
3

>  <TPSA>
63.32

>  <RotBonds>
1

$$$$

  Mrv2205 11102315382D          

  0  0  0     0  0            999 V3000
M  V30 BEGIN CTAB
M  V30 COUNTS 12 13 0 0 0
M  V30 BEGIN ATOM
M  V30 1 C 0.1434 -4.3335 0 0
M  V30 2 C 1.6497 -4.0133 0 0
M  V30 3 O 2.6802 -5.1578 0 0
M  V30 4 C 2.1256 -2.5487 0 0
M  V30 5 C 1.2204 -1.3028 0 0
M  V30 6 N 2.1256 -0.0569 0 0
M  V30 7 C 3.5902 -0.5328 0 0
M  V30 8 C 4.9239 0.2372 0 0
M  V30 9 C 6.2576 -0.5328 0 0
M  V30 10 C 6.2576 -2.0728 0 0
M  V30 11 C 4.9239 -2.8428 0 0
M  V30 12 C 3.5902 -2.0728 0 0
M  V30 END ATOM
M  V30 BEGIN BOND
M  V30 1 1 1 2
M  V30 2 2 2 3
M  V30 3 1 2 4
M  V30 4 2 4 5
M  V30 5 1 5 6
M  V30 6 1 6 7
M  V30 7 1 7 8
M  V30 8 2 8 9
M  V30 9 1 9 10
M  V30 10 2 10 11
M  V30 11 1 11 12
M  V30 12 1 4 12
M  V30 13 2 7 12
M  V30 END BOND
M  V30 END CTAB
M  END
>  <Catalog ID>
Z57337726

>  <MW>
159.068

>  <MW (desalted)>
159.185

>  <ClogP>
1.979

>  <logS>
-2.56

>  <HBD>
1

>  <HBA>
1

>  <TPSA>
32.86

>  <RotBonds>
1

$$$$

  Mrv2205 11102315382D          

  0  0  0     0  0            999 V3000
M  V30 BEGIN CTAB
M  V30 COUNTS 11 11 0 0 0
M  V30 BEGIN ATOM
M  V30 1 O 0 4.62 0 0
M  V30 2 C 1.3337 3.85 0 0
M  V30 3 O 2.6674 4.62 0 0
M  V30 4 C 1.3337 2.31 0 0
M  V30 5 C 2.6674 1.54 0 0
M  V30 6 C 2.6674 -0 0 0
M  V30 7 C 1.3337 -0.77 0 0
M  V30 8 O 1.3337 -2.31 0 0
M  V30 9 C 0 0 0 0
M  V30 10 Cl -1.3337 -0.77 0 0
M  V30 11 C 0 1.54 0 0
M  V30 END ATOM
M  V30 BEGIN BOND
M  V30 1 1 1 2
M  V30 2 2 2 3
M  V30 3 1 2 4
M  V30 4 1 4 5
M  V30 5 2 5 6
M  V30 6 1 6 7
M  V30 7 1 7 8
M  V30 8 2 7 9
M  V30 9 1 9 10
M  V30 10 1 9 11
M  V30 11 2 4 11
M  V30 END BOND
M  V30 END CTAB
M  END
>  <Catalog ID>
Z104503564

>  <MW>
171.993

>  <MW (desalted)>
172.566

>  <ClogP>
2.073

>  <logS>
-1.89

>  <HBD>
2

>  <HBA>
3

>  <TPSA>
57.53

>  <RotBonds>
1

$$$$

  Mrv2205 11102315382D          

  0  0  0     0  0            999 V3000
M  V30 BEGIN CTAB
M  V30 COUNTS 10 11 0 0 0
M  V30 BEGIN ATOM
M  V30 1 C 4.067 -0.4761 0 0
M  V30 2 N 2.6024 -0.0002 0 0
M  V30 3 C 2.1698 1.73 0 0
M  V30 4 C 0.9658 0.7698 0 0
M  V30 5 C 0.9658 -0.7702 0 0
M  V30 6 C 2.1698 -1.7304 0 0
M  V30 7 C 3.6712 -1.3877 0 0
M  V30 8 C 4.3394 -0.0002 0 0
M  V30 9 O 5.8794 -0.0002 0 0
M  V30 10 C 3.6712 1.3873 0 0
M  V30 END ATOM
M  V30 BEGIN BOND
M  V30 1 1 1 2
M  V30 2 1 2 3
M  V30 3 1 3 4
M  V30 4 1 4 5
M  V30 5 1 5 6
M  V30 6 1 2 6
M  V30 7 1 6 7
M  V30 8 1 7 8
M  V30 9 2 8 9
M  V30 10 1 8 10
M  V30 11 1 3 10
M  V30 END BOND
M  V30 END CTAB
M  END
>  <Catalog ID>
Z362847958

>  <MW>
139.1

>  <MW (desalted)>
139.195

>  <ClogP>
0.418

>  <logS>
-0.16

>  <HBD>
0

>  <HBA>
2

>  <TPSA>
20.31

>  <RotBonds>
0

$$$$

  Mrv2205 11102315382D          

  0  0  0     0  0            999 V3000
M  V30 BEGIN CTAB
M  V30 COUNTS 10 10 0 0 0
M  V30 BEGIN ATOM
M  V30 1 O 0 4.62 0 0
M  V30 2 C 1.3337 3.85 0 0
M  V30 3 O 2.6674 4.62 0 0
M  V30 4 C 1.3337 2.31 0 0
M  V30 5 C 2.6674 1.54 0 0
M  V30 6 C 2.6674 -0 0 0
M  V30 7 C 1.3337 -0.77 0 0
M  V30 8 Cl 1.3337 -2.31 0 0
M  V30 9 C 0 0 0 0
M  V30 10 C 0 1.54 0 0
M  V30 END ATOM
M  V30 BEGIN BOND
M  V30 1 1 1 2
M  V30 2 2 2 3
M  V30 3 1 2 4
M  V30 4 1 4 5
M  V30 5 2 5 6
M  V30 6 1 6 7
M  V30 7 1 7 8
M  V30 8 2 7 9
M  V30 9 1 9 10
M  V30 10 2 4 10
M  V30 END BOND
M  V30 END CTAB
M  END
>  <Catalog ID>
Z104473324

>  <MW>
155.998

>  <MW (desalted)>
156.566

>  <ClogP>
2.696

>  <logS>
-2.28

>  <HBD>
1

>  <HBA>
2

>  <TPSA>
37.3

>  <RotBonds>
1

$$$$

  Mrv2205 11102315382D          

  0  0  0     0  0            999 V3000
M  V30 BEGIN CTAB
M  V30 COUNTS 10 10 0 0 0
M  V30 BEGIN ATOM
M  V30 1 N 1.3337 3.85 0 0
M  V30 2 C 1.3337 2.31 0 0
M  V30 3 C 2.6674 1.54 0 0
M  V30 4 N 2.6674 -0 0 0
M  V30 5 C 1.3337 -0.77 0 0
M  V30 6 C 0 0 0 0
M  V30 7 C 0 1.54 0 0
M  V30 8 C -1.3337 2.31 0 0
M  V30 9 O -2.6674 1.54 0 0
M  V30 10 O -1.3337 3.85 0 0
M  V30 END ATOM
M  V30 BEGIN BOND
M  V30 1 1 1 2
M  V30 2 1 2 3
M  V30 3 2 3 4
M  V30 4 1 4 5
M  V30 5 2 5 6
M  V30 6 1 6 7
M  V30 7 2 2 7
M  V30 8 1 7 8
M  V30 9 2 8 9
M  V30 10 1 8 10
M  V30 END BOND
M  V30 END CTAB
M  END
>  <Catalog ID>
Z414314668

>  <MW>
138.043

>  <MW (desalted)>
138.124

>  <ClogP>
0.747

>  <logS>
-0.199

>  <HBD>
2

>  <HBA>
4

>  <TPSA>
76.21

>  <RotBonds>
1

$$$$

  Mrv2205 11102315382D          

  0  0  0     0  0            999 V3000
M  V30 BEGIN CTAB
M  V30 COUNTS 11 12 0 0 0
M  V30 BEGIN ATOM
M  V30 1 O 0 -3.08 0 0
M  V30 2 C 1.3337 -2.31 0 0
M  V30 3 C 1.3337 -0.77 0 0
M  V30 4 C 2.6674 0 0 0
M  V30 5 C 4.001 -0.77 0 0
M  V30 6 C 5.3347 0 0 0
M  V30 7 C 6.6684 -0.77 0 0
M  V30 8 C 6.6684 -2.31 0 0
M  V30 9 C 5.3347 -3.08 0 0
M  V30 10 C 4.001 -2.31 0 0
M  V30 11 O 2.6674 -3.08 0 0
M  V30 END ATOM
M  V30 BEGIN BOND
M  V30 1 2 1 2
M  V30 2 1 2 3
M  V30 3 2 3 4
M  V30 4 1 4 5
M  V30 5 1 5 6
M  V30 6 2 6 7
M  V30 7 1 7 8
M  V30 8 2 8 9
M  V30 9 1 9 10
M  V30 10 2 5 10
M  V30 11 1 10 11
M  V30 12 1 2 11
M  V30 END BOND
M  V30 END CTAB
M  END
>  <Catalog ID>
Z57169486

>  <MW>
146.037

>  <MW (desalted)>
146.143

>  <ClogP>
1.412

>  <logS>
-2.55

>  <HBD>
0

>  <HBA>
1

>  <TPSA>
26.3

>  <RotBonds>
0

$$$$

  Mrv2205 11102315382D          

  0  0  0     0  0            999 V3000
M  V30 BEGIN CTAB
M  V30 COUNTS 12 13 0 0 0
M  V30 BEGIN ATOM
M  V30 1 O 0.1434 -4.3335 0 0
M  V30 2 C 1.6497 -4.0133 0 0
M  V30 3 O 2.6802 -5.1578 0 0
M  V30 4 C 2.1256 -2.5487 0 0
M  V30 5 C 1.2204 -1.3028 0 0
M  V30 6 N 2.1256 -0.0569 0 0
M  V30 7 C 3.5902 -0.5328 0 0
M  V30 8 C 4.9239 0.2372 0 0
M  V30 9 C 6.2576 -0.5328 0 0
M  V30 10 C 6.2576 -2.0728 0 0
M  V30 11 C 4.9239 -2.8428 0 0
M  V30 12 C 3.5902 -2.0728 0 0
M  V30 END ATOM
M  V30 BEGIN BOND
M  V30 1 1 1 2
M  V30 2 2 2 3
M  V30 3 1 2 4
M  V30 4 2 4 5
M  V30 5 1 5 6
M  V30 6 1 6 7
M  V30 7 1 7 8
M  V30 8 2 8 9
M  V30 9 1 9 10
M  V30 10 2 10 11
M  V30 11 1 11 12
M  V30 12 1 4 12
M  V30 13 2 7 12
M  V30 END BOND
M  V30 END CTAB
M  END
>  <Catalog ID>
Z89283908

>  <MW>
161.048

>  <MW (desalted)>
161.157

>  <ClogP>
2.131

>  <logS>
-2.33

>  <HBD>
2

>  <HBA>
2

>  <TPSA>
53.09

>  <RotBonds>
1

$$$$

  Mrv2205 11102315382D          

  0  0  0     0  0            999 V3000
M  V30 BEGIN CTAB
M  V30 COUNTS 12 12 0 0 0
M  V30 BEGIN ATOM
M  V30 1 N 1.3337 5.39 0 0
M  V30 2 S 1.3337 3.85 0 0
M  V30 3 O -0.2063 3.85 0 0
M  V30 4 O 2.8737 3.85 0 0
M  V30 5 C 1.3337 2.31 0 0
M  V30 6 C 2.6674 1.54 0 0
M  V30 7 C 2.6674 -0 0 0
M  V30 8 Cl 4.001 -0.77 0 0
M  V30 9 C 1.3337 -0.77 0 0
M  V30 10 C 0 0 0 0
M  V30 11 Cl -1.3337 -0.77 0 0
M  V30 12 C 0 1.54 0 0
M  V30 END ATOM
M  V30 BEGIN BOND
M  V30 1 1 1 2
M  V30 2 2 2 3
M  V30 3 2 2 4
M  V30 4 1 2 5
M  V30 5 1 5 6
M  V30 6 2 6 7
M  V30 7 1 7 8
M  V30 8 1 7 9
M  V30 9 2 9 10
M  V30 10 1 10 11
M  V30 11 1 10 12
M  V30 12 2 5 12
M  V30 END BOND
M  V30 END CTAB
M  END
>  <Catalog ID>
Z45415617

>  <MW>
224.942

>  <MW (desalted)>
226.08

>  <ClogP>
2.064

>  <logS>
-2.851

>  <HBD>
1

>  <HBA>
2

>  <TPSA>
60.16

>  <RotBonds>
1

$$$$

  Mrv2205 11102315382D          

  0  0  0     0  0            999 V3000
M  V30 BEGIN CTAB
M  V30 COUNTS 12 13 0 0 0
M  V30 BEGIN ATOM
M  V30 1 N 0 -0 0 0
M  V30 2 C 1.3337 -0.77 0 0
M  V30 3 N 2.6674 0 0 0
M  V30 4 C 4.001 -0.77 0 0
M  V30 5 C 5.3347 0 0 0
M  V30 6 C 6.6684 -0.77 0 0
M  V30 7 C 6.6684 -2.31 0 0
M  V30 8 C 5.3347 -3.08 0 0
M  V30 9 C 4.001 -2.31 0 0
M  V30 10 C 2.6674 -3.08 0 0
M  V30 11 O 2.6674 -4.62 0 0
M  V30 12 N 1.3337 -2.31 0 0
M  V30 END ATOM
M  V30 BEGIN BOND
M  V30 1 1 1 2
M  V30 2 2 2 3
M  V30 3 1 3 4
M  V30 4 1 4 5
M  V30 5 2 5 6
M  V30 6 1 6 7
M  V30 7 2 7 8
M  V30 8 1 8 9
M  V30 9 2 4 9
M  V30 10 1 9 10
M  V30 11 2 10 11
M  V30 12 1 10 12
M  V30 13 1 2 12
M  V30 END BOND
M  V30 END CTAB
M  END
>  <Catalog ID>
Z840267872

>  <MW>
161.059

>  <MW (desalted)>
161.161

>  <ClogP>
0.153

>  <logS>
-2.89

>  <HBD>
2

>  <HBA>
3

>  <TPSA>
67.48

>  <RotBonds>
0

$$$$

  Mrv2205 11102315382D          

  0  0  0     0  0            999 V3000
M  V30 BEGIN CTAB
M  V30 COUNTS 13 14 0 0 0
M  V30 BEGIN ATOM
M  V30 1 O -0.3325 -5.7982 0 0
M  V30 2 C 0.1434 -4.3335 0 0
M  V30 3 O -0.8871 -3.1891 0 0
M  V30 4 C 1.6497 -4.0133 0 0
M  V30 5 C 2.1256 -2.5487 0 0
M  V30 6 N 1.2204 -1.3028 0 0
M  V30 7 O 2.1256 -0.0569 0 0
M  V30 8 C 3.5902 -0.5328 0 0
M  V30 9 C 4.9239 0.2372 0 0
M  V30 10 C 6.2576 -0.5328 0 0
M  V30 11 C 6.2576 -2.0728 0 0
M  V30 12 C 4.9239 -2.8428 0 0
M  V30 13 C 3.5902 -2.0728 0 0
M  V30 END ATOM
M  V30 BEGIN BOND
M  V30 1 1 1 2
M  V30 2 2 2 3
M  V30 3 1 2 4
M  V30 4 1 4 5
M  V30 5 2 5 6
M  V30 6 1 6 7
M  V30 7 1 7 8
M  V30 8 1 8 9
M  V30 9 2 9 10
M  V30 10 1 10 11
M  V30 11 2 11 12
M  V30 12 1 12 13
M  V30 13 1 5 13
M  V30 14 2 8 13
M  V30 END BOND
M  V30 END CTAB
M  END
>  <Catalog ID>
Z99600464

>  <MW>
177.043

>  <MW (desalted)>
177.157

>  <ClogP>
0.777

>  <logS>
-1.58

>  <HBD>
1

>  <HBA>
3

>  <TPSA>
63.33

>  <RotBonds>
2

$$$$

  Mrv2205 11102315382D          

  0  0  0     0  0            999 V3000
M  V30 BEGIN CTAB
M  V30 COUNTS 13 13 0 0 0
M  V30 BEGIN ATOM
M  V30 1 C 0 6.16 0 0
M  V30 2 C 0 4.62 0 0
M  V30 3 O -1.3337 3.85 0 0
M  V30 4 N 1.3337 3.85 0 0
M  V30 5 C 1.3337 2.31 0 0
M  V30 6 C 2.6674 1.54 0 0
M  V30 7 C 2.6674 -0 0 0
M  V30 8 C 1.3337 -0.77 0 0
M  V30 9 C 0 0 0 0
M  V30 10 C 0 1.54 0 0
M  V30 11 C 1.3337 -2.31 0 0
M  V30 12 O 2.6674 -3.08 0 0
M  V30 13 O -0 -3.08 0 0
M  V30 END ATOM
M  V30 BEGIN BOND
M  V30 1 1 1 2
M  V30 2 2 2 3
M  V30 3 1 2 4
M  V30 4 1 4 5
M  V30 5 1 5 6
M  V30 6 2 6 7
M  V30 7 1 7 8
M  V30 8 2 8 9
M  V30 9 1 9 10
M  V30 10 2 5 10
M  V30 11 1 8 11
M  V30 12 2 11 12
M  V30 13 1 11 13
M  V30 END BOND
M  V30 END CTAB
M  END
>  <Catalog ID>
Z57042001

>  <MW>
179.058

>  <MW (desalted)>
179.173

>  <ClogP>
1.198

>  <logS>
-1.68

>  <HBD>
2

>  <HBA>
3

>  <TPSA>
66.4

>  <RotBonds>
2

$$$$

  Mrv2205 11102315382D          

  0  0  0     0  0            999 V3000
M  V30 BEGIN CTAB
M  V30 COUNTS 15 16 0 0 0
M  V30 BEGIN ATOM
M  V30 1 O 0 -7.7 0 0
M  V30 2 C 1.3337 -6.93 0 0
M  V30 3 O 2.6674 -7.7 0 0
M  V30 4 C 1.3337 -5.39 0 0
M  V30 5 O 2.6674 -4.62 0 0
M  V30 6 C 2.6674 -3.08 0 0
M  V30 7 C 1.3337 -2.31 0 0
M  V30 8 C 1.3337 -0.77 0 0
M  V30 9 C 2.6674 0 0 0
M  V30 10 C 4.001 -0.77 0 0
M  V30 11 C 5.3347 0 0 0
M  V30 12 C 6.6684 -0.77 0 0
M  V30 13 C 6.6684 -2.31 0 0
M  V30 14 C 5.3347 -3.08 0 0
M  V30 15 C 4.001 -2.31 0 0
M  V30 END ATOM
M  V30 BEGIN BOND
M  V30 1 1 1 2
M  V30 2 2 2 3
M  V30 3 1 2 4
M  V30 4 1 4 5
M  V30 5 1 5 6
M  V30 6 1 6 7
M  V30 7 2 7 8
M  V30 8 1 8 9
M  V30 9 2 9 10
M  V30 10 1 10 11
M  V30 11 2 11 12
M  V30 12 1 12 13
M  V30 13 2 13 14
M  V30 14 1 14 15
M  V30 15 2 6 15
M  V30 16 1 10 15
M  V30 END BOND
M  V30 END CTAB
M  END
>  <Catalog ID>
Z56900768

>  <MW>
202.063

>  <MW (desalted)>
202.206

>  <ClogP>
2.524

>  <logS>
-3.38

>  <HBD>
1

>  <HBA>
3

>  <TPSA>
46.53

>  <RotBonds>
3

$$$$
