Thio
  PyMOL3.1          3D                             0

 25 27  0  0  0  0  0  0  0  0999 V2000
   67.8035   50.7644   -3.8371 Cl  0  0  0  0  0  0  0  0  0  0  0  0
   69.7953   50.0720   -9.0242 C   0  0  0  0  0  0  0  0  0  0  0  0
   70.3479   50.2842   -7.6820 C   0  0  0  0  0  0  0  0  0  0  0  0
   69.3501   51.1060   -6.5342 S   0  0  0  0  0  0  0  0  0  0  0  0
   70.5407   51.0429   -5.3021 C   0  0  0  0  0  0  0  0  0  0  0  0
   71.6512   50.3592   -5.7697 C   0  0  0  0  0  0  0  0  0  0  0  0
   71.5583   49.9144   -7.1230 C   0  0  0  0  0  0  0  0  0  0  0  0
   72.5618   49.2130   -7.8402 C   0  0  0  0  0  0  0  0  0  0  0  0
   72.5241   49.0917   -9.0658 O   0  0  0  0  0  0  0  0  0  0  0  0
   73.5077   48.6701   -6.9913 N   0  0  0  0  0  0  0  0  0  0  0  0
   74.6354   47.9716   -7.5535 C   0  0  0  0  0  0  0  0  0  0  0  0
   75.6168   47.5883   -6.4456 C   0  0  0  0  0  0  0  0  0  0  0  0
   76.5000   48.7342   -6.2422 N   0  0  0  0  0  0  0  0  0  0  0  0
   74.2459   46.6620   -8.1799 C   0  0  0  0  0  0  0  0  0  0  0  0
   73.4247   45.7738   -7.5058 C   0  0  0  0  0  0  0  0  0  0  0  0
   73.1321   44.5596   -8.1249 C   0  0  0  0  0  0  0  0  0  0  0  0
   73.6183   44.2203   -9.3881 C   0  0  0  0  0  0  0  0  0  0  0  0
   74.4237   45.1417  -10.0364 C   0  0  0  0  0  0  0  0  0  0  0  0
   74.7527   46.3502   -9.4373 C   0  0  0  0  0  0  0  0  0  0  0  0
   70.3436   51.7152   -4.0301 C   0  0  0  0  0  0  0  0  0  0  0  0
   71.3856   52.4996   -3.5371 C   0  0  0  0  0  0  0  0  0  0  0  0
   71.2354   53.2035   -2.3403 C   0  0  0  0  0  0  0  0  0  0  0  0
   70.0509   53.1424   -1.6093 C   0  0  0  0  0  0  0  0  0  0  0  0
   69.0224   52.3582   -2.1071 C   0  0  0  0  0  0  0  0  0  0  0  0
   69.1620   51.6631   -3.3042 C   0  0  0  0  0  0  0  0  0  0  0  0
  2  3  1  0  0  0  0
  3  4  4  0  0  0  0
  4  5  4  0  0  0  0
  5  6  4  0  0  0  0
  6  7  4  0  0  0  0
  3  7  4  0  0  0  0
  7  8  1  0  0  0  0
  8  9  2  0  0  0  0
  8 10  1  0  0  0  0
 10 11  1  0  0  0  0
 11 12  1  0  0  0  0
 12 13  1  0  0  0  0
 11 14  1  0  0  0  0
 14 15  4  0  0  0  0
 15 16  4  0  0  0  0
 16 17  4  0  0  0  0
 17 18  4  0  0  0  0
 18 19  4  0  0  0  0
 14 19  4  0  0  0  0
  5 20  1  0  0  0  0
 20 25  4  0  0  0  0
 20 21  4  0  0  0  0
 21 22  4  0  0  0  0
 22 23  4  0  0  0  0
 23 24  4  0  0  0  0
 24 25  4  0  0  0  0
  1 25  1  0  0  0  0
M  END
$$$$
